 &NAMPREPCMA
   OBSOUT='cma.ascii.1'
   CMAHDR='cmaheader'
   CMABDY='cmabdy'
   CMADIM='cmadim'
   BRPFORM='brpform'
/
 &NAMDIMO
   NMXOBS=30000,
   NDATAMX=600000,
/
 &NAMFILT
   NELEMS = 16,
   NLIST(1)=10004,
   NLIST(2)=10051,
   NLIST(3)=12004,
   NLIST(4)=11215,
   NLIST(5)=11216,
   NLIST(6)=12203,
   NLIST(7)=12001,
   NLIST(8)=12192,
   NLIST(9)=11003,
   NLIST(10)=11004,
   NLIST(11)=10194,
   NLIST(12)=12062,
   NLIST(13)=12063,
   NLIST(14)=12163,
   NLIST(15)=15036,
   NLIST(16)=15031,
   NFLAGS=3,
   NLISTFLG(1)=2,
   NLISTFLG(2)=4,
   NLISTFLG(3)=5,
   list_topoFilt(1) = 'SF'
   list_topoFilt(2) = 'UA'	
   list_topoFilt(3) = 'AI'
   list_topoFilt(4) = 'SW'
   list_topoFilt(5) = 'PR'
   list_topoFilt(6) = 'TO'
   RLIMLVHU=70.D0,
/
 &NAMCODTYP
/
 &NAMBURP_FILTER_SFC
  BNBITSOFF=0,
  BBITOFF(1)=2,
  BBITOFF(2)=4,
  BBITOFF(3)=5,
  BBITOFF(4)=-5,
  NELEMS_SF=7,
  BLISTELEMENTS_SF=10004,12004,10051,12203,11011,11012,13220
  NELEMS_GP=7,
  BLISTELEMENTS_GP=10004,12004,12203,15031,15032,15035,13220
/
 &NAMBURP_FILTER_CONV
  BNBITSOFF=0,
  BBITOFF(1)=2,
  BBITOFF(2)=4,
  BBITOFF(3)=5,
  BBITOFF(4)=-5,
  BBITOFF(5)=-8,
  NELEMS=10,
  BLISTELEMENTS=12001,11001,11002,12192,10194,15036,11011,11012,13210,13220
/
 &NAMBURP_FILTER_TOVS
  BNBITSOFF=0,
  BBITOFF(1)=2,
  BBITOFF(2)=4,
  BBITOFF(3)=5,
  BBITOFF(4)=-5,
  BBITOFF(5)=-8,
  NELEMS=1
  BLISTELEMENTS=12163
/
 &NAMBURP_UPDATE
  BN_ITEMS=2,
  BITEMLIST(1)='OMP',
  BITEMLIST(2)='OMA',
  TYPE_RESUME='DERIALT'
/
