 &NAMPREPCMA
   OBSOUT        = 'cma.ascii.1'
   CMAHDR        = 'cmaheader'
   CMABDY        = 'cmabdy'
   CMADIM        = 'cmadim'
   BRPFORM       = 'brpform'
   suprep                  = .true.
   applySatUtil            = .true.
   modifyAmsubObsError     = .true.
   rejectOutsideTimeWindow = .true.
   rejectHighLatIR         = .true.
   obsClean                = .true.
   thinning                = .true.
   writeObsFiles           = .true.
   writeAsciiCmaFiles      = .false.
/
 &NAMDIMO
   NMXOBS  = 100000,
   NDATAMX = 5000000,
/
 &NAMTIME
   DSTEPOBS    = 6.0D0
   DWINDOWSIZE = 6.0D0
/
 &NAMFILT
   NLIST(1)=7007
   NLIST(2)=10004
   NLIST(3)=10051
   NLIST(4)=11003
   NLIST(5)=11004
   NLIST(6)=11215
   NLIST(7)=11216
   NLIST(8)=12001
   NLIST(9)=12004
   NLIST(10)=12163
   NLIST(11)=12192
   NLIST(12)=12203
   NLIST(13)=15036
   NLISTFLG(1)=2,
   NLISTFLG(2)=4,
   NLISTFLG(3)=5,
   NLISTFLG(4)=-5,
   list_topoFilt(1) = 'SF'
   list_topoFilt(2) = 'UA'	
   list_topoFilt(3) = 'AI'
   list_topoFilt(4) = 'SW'
   list_topoFilt(5) = 'PR'
   list_topoFilt(6) = 'TO'
   RLIMLVHU=70.D0,
/
 &NAMTOV   
   CSATID(1)        = 'AQUA',
   CINSTRUMENTID(1) = 'AIRS',
   CSATID(2)        = 'METOP-2',
   CINSTRUMENTID(2) = 'IASI',
   CSATID(3)        = 'NOAA15',
   CINSTRUMENTID(3) = 'AMSUA',
   CSATID(4)        = 'NOAA16',
   CINSTRUMENTID(4) = 'AMSUA',
   CSATID(5)        = 'AQUA',
   CINSTRUMENTID(5) = 'AMSUA',
   CSATID(6)        = 'NOAA18',
   CINSTRUMENTID(6) = 'AMSUA',
   CSATID(7)        = 'NOAA15',
   CINSTRUMENTID(7) = 'AMSUB',
   CSATID(8)        = 'NOAA16',
   CINSTRUMENTID(8) = 'AMSUB',
   CSATID(9)        = 'NOAA17',
   CINSTRUMENTID(9) = 'AMSUB',
   CSATID(10)        = 'NOAA18',
   CINSTRUMENTID(10) = 'MHS',
   CSATID(11)        = 'METOP-2',
   CINSTRUMENTID(11) = 'AMSUA',
   CSATID(12)        = 'METOP-2',
   CINSTRUMENTID(12) = 'MHS',
   CSATID(13)        = 'NOAA19',
   CINSTRUMENTID(13) = 'AMSUA',
   CSATID(14)        = 'NOAA19',
   CINSTRUMENTID(14) = 'MHS',
   CSATID(15)        = 'METOP-1',
   CINSTRUMENTID(15) = 'IASI',
   CSATID(16)        = 'METOP-1',
   CINSTRUMENTID(16) = 'AMSUA',
   CSATID(17)        = 'METOP-1',
   CINSTRUMENTID(17) = 'MHS',
   CSATID(18)        = 'NPP',
   CINSTRUMENTID(18) = 'ATMS',
   CSATID(19)        = 'NPP',
   CINSTRUMENTID(19) = 'CRIS',
   LDBGTOV    = .FALSE.,
   CRTMODL    = 'RTTOV',
   regLimitExtrap=.false.
/
 &NAMOER
  NEW_OER_SW=.true.
/
 &NAMCODTYP
/
 &NAMBURP_FILTER_SFC
  BNBITSOFF=0,
  BBITOFF(1)=2,
  BBITOFF(2)=4,
  BBITOFF(3)=5,
  BBITOFF(4)=-5,
  NELEMS_SFC=10,
  BLISTELEMENTS_SFC=10004,12004,10051,12203,11011,11012,13220
/
 &NAMBURP_FILTER_CONV
  BNBITSOFF=0,
  BBITOFF(1)=2,
  BBITOFF(2)=4,
  BBITOFF(3)=5,
  BBITOFF(4)=-5,
  BBITOFF(5)=-8,
  NELEMS=10,
  BLISTELEMENTS=12001,11001,11002,12192,10194,15036,11011,11012,13210,13220
/
 &NAMBURP_FILTER_TOVS
  BNBITSOFF=0,
  BBITOFF(1)=2,
  BBITOFF(2)=4,
  BBITOFF(3)=5,
  BBITOFF(4)=-5,
  BBITOFF(5)=-8,
  NELEMS=1
  BLISTELEMENTS=12163
/
 &NAMBURP_UPDATE
  TYPE_RESUME='BGCKALT'
/
