 &NAMBHI
  NTRUNC = 270
  SCALEFACTOR = 200*1.0d0
/
 &NAMBEN
  SCALEFACTOR = 200*0.0d0
/
 &NAMENKF
   NENS=4
   SEED=1
   REMOVE_MEAN=T
   MPITOPOINDEPENDENT = .true.
/
 &NAMTIME
  DSTEPOBS = 6.0d0
  DSTEPOBSINC = 6.0d0
/
 &NAMSTATE
   RHUMIN  = 1.0D-07
   ANLVAR(1)   ='UU'
   ANLVAR(2)   ='VV'
   ANLVAR(3)   ='TT'
   ANLVAR(4)   ='LQ'
   ANLVAR(5)   ='P0'
   ANLVAR(6)   ='TG'
/
