 &thin_satwind
   deltemps = 6
   deldist = 200
/
 &NAMTIME
   DSTEPOBS = 0.25d0
   DSTEPOBSINC = 6.0d0
/
 &NAMFILT
   NLIST(1)=11003,
   NLIST(2)=11004,
   NLIST(3)=12192,
   NLIST(4)=10192,
   NLIST(5)=10194,
   NLIST(6)=12001,
   NLIST(7)=10004,
   NLIST(8)=10051,
   NLIST(9)=12004,
   NLIST(10)=11215,
   NLIST(11)=11216,
   NLIST(12)=12203,
   NLIST(13)=12163,
   NLIST(14)=15036,
   NLIST(15)=15031,
   NLIST(16)=40030,
   NLISTFLG(1)=2,
   NLISTFLG(2)=4,
   NLISTFLG(3)=5,
   NLISTFLG(4)=11,
   RLIMLVHU=70.,
/
 &NAMDIMO
   NMXOBS =500000,
   NDATAMX=5000000,
/
 &NAMCODTYP
/
 &NAMBURP_FILTER_SFC
  BLISTELEMENTS_SFC=10004,12004,10051,12203,11011,11012,13220,15031,15032,15035
/
 &NAMBURP_FILTER_CONV
  READ_QI_GA_MT_SW=.true.
  BLISTELEMENTS=12001,11001,11002,12192,10194,15036,11011,11012,13210,13220
/
 &NAMBURP_FILTER_TOVS
  BLISTELEMENTS=12163
/
 &NAMBURP_UPDATE
  TYPE_RESUME='BGCKALT'
/
