 &NAMEXTRACT
   EXTRACTDATE = 2019060106
   ONEOBS_LONLAT(1,:)= 40,43
   ONEOBS_LONLAT(2,:)= 40,59
   ONEOBS_LONLAT(3,:)= 40,76
   ONEOBS_LONLAT(4,:)= 40,92
   ONEOBS_LONLAT(5,:)= 40,109
   ONEOBS_LONLAT(6,:)= 40,126
   ONEOBS_LONLAT(7,:)= 40,142
   ONEOBS_LONLAT(8,:)= 40,159
   ONEOBS_LONLAT(9,:)= 40,175
   ONEOBS_LONLAT(10,:)= 40,192
   ONEOBS_LONLAT(11,:)= 40,209
   ONEOBS_LONLAT(12,:)= 40,225
   ONEOBS_LONLAT(13,:)= 40,242
   ONEOBS_LONLAT(14,:)= 40,258
/
 &NAMBHI
   NTRUNC  = 270,
   SCALEFACTOR   = 100*1.00D0
/
 &NAMBEN
/
 &NAMSTATE
   ANLVAR(1)   ='UU'
   ANLVAR(2)   ='VV'
   ANLVAR(3)   ='TT'
   ANLVAR(4)   ='HU'
   ANLVAR(5)   ='P0'
   ANLVAR(6)   ='TG'
/
 &NAMTIME
  DSTEPOBS = 6.0d0
  DSTEPOBSINC = 6.0d0
/
 &nams2c
/
