 &NAMBHI
   SCALEFACTOR   = 100*1.0D0
/
 &NAMBEN
   SCALEFACTOR   = 100*0.0D0
/
 &NAMMIN
   LVARQC=.FALSE.,
/
 &NAMSTATE
   addHeightSfcOffset = .false.
   RHUMIN  = 1.0D-07
   ANLVAR(1)   ='UU'
   ANLVAR(2)   ='VV'
   ANLVAR(3)   ='TT'
   ANLVAR(4)   ='HU'
   ANLVAR(5)   ='P0'
   ANLVAR(6)   ='TG'
/
 &NAMRMAT
/
 &NAMTIME
  DSTEPOBS = 0.25D0
/
 &NAMFILT
   NLIST(1)=11003,
   NLIST(2)=11004,
   NLIST(3)=12192,
   NLIST(4)=10192,
   NLIST(5)=10194,
   NLIST(6)=12001,
   NLIST(7)=10004,
   NLIST(8)=10051,
   NLIST(9)=12004,
   NLIST(10)=11215,
   NLIST(11)=11216,
   NLIST(12)=12203,
   NLIST(13)=12163,
   NLIST(14)=15036,
   NLIST(15)=15031,
   NLISTFLG(1)=0,
   NLISTFLG(2)=-1,
   NLISTFLG(3)=-2,
   NLISTFLG(4)=-3,
   NLISTFLG(5)=-4,
   NLISTFLG(6)=-5,
   NLISTFLG(7)=-6,
   NLISTFLG(8)=-7,
   RLIMLVHU=70.,
/
 &NAMDIMO
   NMXOBS=200000,
   NDATAMX=2000000,
/
 &NAMTOV
/
 &NAMGPSRO
  SURFMIN  = 1000.D0,
  HSFMIN   = 1000.D0,
  HTPMAX   = 70000.D0,
  BGCKBAND = 0.05D0,
  gpsroError = 'DYNAMIC'
/
 &NAMGPSGB
   DZMIN      = 2.0D0,
   DZMAX      = 1000.0D0,
   YZTDERR    = 0.0D0,
   LASSMET    = .TRUE.,
   LLBLMET    = .FALSE.,
   YSFERRWGT  = 1.00D0,
   YZDERRWGT  = 1.00D0,
   LBEVIS     = .TRUE.,
   IREFOPT    = 1,
   L1OBS      = .FALSE.,
   LTESTOP    = .FALSE.,
   IZTDOP     = 1,
/
 &NAMCODTYP
/
&NAMBURP_FILTER_SFC
  BNBITSOFF=0,
  BBITOFF(1)=2,
  BBITOFF(2)=4,
  BBITOFF(3)=5,
  BBITOFF(4)=-5,
  NELEMS_SFC=10,
  BLISTELEMENTS_SFC=10004,12004,10051,12203,11011,11012,13220,15031,15032,15035
  NELEMS_GPS=6
  LISTE_ELE_GPS=10004,12004,12203,15031,15032,15035
/
 &NAMBURP_FILTER_CONV
  UA_HIGH_PRECISION_TT_ES=.true.,
  READ_QI_GA_MT_SW=.true.,
  BNBITSOFF=0,
  BBITOFF(1)=2,
  BBITOFF(2)=4,
  BBITOFF(3)=5,
  BBITOFF(4)=-5,
  BBITOFF(5)=-8,
  NELEMS=10,
  BLISTELEMENTS=12001,11001,11002,12192,10194,15036,11011,11012,13210,13220
/
 &NAMBURP_FILTER_TOVS
  BNBITSOFF=0,
  BBITOFF(1)=2,
  BBITOFF(2)=4,
  BBITOFF(3)=5,
  BBITOFF(4)=-5,
  BBITOFF(5)=-8,
  NELEMS=1
  BLISTELEMENTS=12163
/
 &NAMPHY
  NEW_TETENS_COEFS=.true.
/
 &NAMOER
  NEW_OER_SW=.true.
/
 &NAMBGCKCONV
  NEW_BGCK_SW=.true.
/
 &NAMBIASCONV
  aiBiasActive=.true.,
  gpBiasActive=.true.,
  uaBiasActive=.true.,
  aiRevOnly=.false.,
  gpRevOnly=.false.,
  uaRevOnly=.false.,
  uaRejUnBcor=.true.
/
 &NAMSONDETYPES
  nlNbSondes=13,
  nlSondeTypes(1) = 'RS41',
  nlSondeCodes(1,1:5) = 23,24,25,41,42
  nlSondeTypes(2) = 'RS92',
  nlSondeCodes(2,1:7) = 13,14,52,79,80,81,83
  nlSondeTypes(3) = 'LMS',
  nlSondeCodes(3,1:8) = 10,11,49,51,82,85,86,87
  nlSondeTypes(4) = 'Modem',
  nlSondeCodes(4,1:6) = 56,57,59,63,64,77
  nlSondeTypes(5) = 'Russian',
  nlSondeCodes(5,1:14) = 19,27,28,29,53,58,60,62,68,69,73,75,88,89
  nlSondeTypes(6) = 'China',
  nlSondeCodes(6,1:4) = 31,32,33,45
  nlSondeTypes(7) = 'China2',
  nlSondeCodes(7,1:5) = 1,2,200,201,202
  nlSondeTypes(8) = 'Meisei',
  nlSondeCodes(8,1:5) = 22,30,35,47,55
  nlSondeTypes(9) = 'JinYang',
  nlSondeCodes(9,1:3) = 12,20,21
  nlSondeTypes(10) = 'iMet',
  nlSondeCodes(10,1:4) = 7,97,98,99
  nlSondeTypes(11) = 'Graw',
  nlSondeCodes(11,1:3) = 17,18,54
  nlSondeTypes(12) = 'Others',
  nlSondeCodes(12,1:8) = 15,16,26,50,72,78,92,96
  nlSondeTypes(13) = 'None',
  nlSondeCodes(13,1:7) = 0,9,34,40,84,90,255
/
 &NAMBURP_UPDATE
  BITEMLIST(1)='OMP',
  BITEMLIST(2)='OER',
  TYPE_RESUME='BGCKALT'
/
