 &NAMCONF
   MODE   = 'BHI'
/
 &NAMCOMPUTEBHI
   FORMULATION = 'legacy'
/
 &NAMSTATE
   ANLVAR(1)   ='UU'
   ANLVAR(2)   ='VV'
   ANLVAR(3)   ='TT'
   ANLVAR(4)   ='LQ'
   ANLVAR(5)   ='P0'
/
 &NAMENS
   NENS=16
/
 &NAMCALCSTATS_GLB
   NTRUNC=380
/
 &NAMTIME
/
