 &NAMENSMANIP
   OUTPUT_ENSEMBLE_MEAN = F
   NENS = 20
   RECENTER = T
   RECENTERING_COEFF = 1.0
   recenterEnsembleControlMember = T
   ensembleTypVarOutput = 'A'
   ensembleEtiketOutput = 'ENSRECENTER'
   ensembleEtiketOutputAppendMemberNumber = .false.
   ensembleControlMemberEtiket   = 'ENSCTLMEM'
   hInterpolationDegree = 'CUBIC'
/
 &NAMTIME
  DSTEPOBSINC = 6.0d0
/
 &NAMSTATE
   ANLVAR(1)   ='UU'
   ANLVAR(2)   ='VV'
   ANLVAR(3)   ='TT'
   ANLVAR(4)   ='HU'
   ANLVAR(5)   ='P0'
/
