 &NAMBGCK
  instName = 'AMSUA'
  burpFileNameIn = './obsto_amsua'
  burpFileNameOut = './obsto_amsua.out'
  mglg_file  = './fstmglg'
  statsFile = './stats_amsua_assim'
  writeModelLsqTT = .true. 
  writeEle25174 = .false.
  debug = .false.
  RESETQC = .FALSE.
  ETIKRESU = '>>BGCKALT'
  writeTbValuesToFile = .false.	
/
 &NAMMWOBS
  reportNumMax = 1500
  locationNumMax = 5000
  channelNumMax = 22
/
