 &NAMBGCK
  instName = 'AMSUA'
  burpFileNameIn = './obsto_amsua'
  burpFileNameOut = './obsto_amsua.out'
  mglg_file  = './fstmglg'
  statsFile = './stats_amsua_assim'
  writeModelLsqTT = .true. 
  writeEle25174 = .false.
  debug = .false.
  RESETQC = .FALSE.
  ETIKRESU = '>>BGCKALT'
  lutb = .false.	
/
