 &NAMBGCK
  instName = 'AMSUA'
  burpFileNameIn = './obsto_amsua'
  burpFileNameOut = './obsto_amsua.out'
  mglg_file  = './fstmglg'
  statsFile = './stats_amsua_assim'
  writeModelLsqTT = .true. 
  writeEle25174 = .false.
  debug = .false.
  RESETQC = .FALSE.
  ETIKRESU = '>>BGCKALT'
  writeTbValuesToFile = .false.	
/
 &NAMMWOBS
  reportNumMax = 1300
  locationNumMax = 500
  channelNumMax = 15
/
 &NAMDIMO
   NMXOBS=650000,
   NDATAMX=9000000,
/
