 &NAMDIAG
   ONEOBS_LEVS = 62
   ONEOBS_LONLAT(1,:) = 876, 365
/
 &NAMBHI
   SCALEFACTOR   = 100*0.00D0
/
 &NAMBEN
   NTRUNC       = 80,
   NENS         = 256
   vertLocalizationType = 'ScaleDependent'
   vertWaveBandPeaks = 30,15,5
   hLocalize    = -1.d0,-1.d0,-1.d0
   vLocalize    = 0.5d0, 2.d0, 4.d0
   SCALEFACTOR  = 100*1.00D0
   ENSPATHNAME  ='./ensemble/'
   huMinValue   = 1.0D-7
   ensDiagnostic  = .true.
/
 &NAMSTATE
   ANLVAR(1)   ='UU'
   ANLVAR(2)   ='VV'
   ANLVAR(3)   ='TT'
   ANLVAR(4)   ='HU'
/
 &NAMTIME
   DSTEPOBS = 6.0d0
   DSTEPOBSINC = 6.0d0
/

