 &NAMBIASSAT
    outOmFPredCov=.TRUE.,
    biasActive=.TRUE.,
    BG_STDDEV=2.d1, 2.d1, 2.d1, 2.d1, 2.d1, 2.d1
    biasmode="reg",
    removeBiasCorrection=.true.
    refreshBiasCorrection=.false.
    mimicsatbcor=.true.
    scanBiasCorLength=-1.d0
    centerPredictors=.false.,
    weightedEstimate=.false.,
    outstats=.true.,
    outcoeffcov=.true.,
    filterObs = .true.,
    cinst(1)="AMSUA"
    nbscan(1)=30
    cglobal(1)="DEF"
    cinst(2)="AMSUB"
    nbscan(2)=90
    cglobal(2)="DEF"
    cinst(3)="MHS"
    nbscan(3)=90
    cglobal(3)="DEF"
    cinst(4)="SSMIS"	
    nbscan(4)=60
    cglobal(4)="NON"
    cinst(5)="AIRS"		
    nbscan(5)=1
    cglobal(5)="NON"
    cinst(6)="IASI"		
    nbscan(6)=1
    cglobal(6)="NON"
    cinst(7)="METS7"		
    nbscan(7)=1
    cglobal(7)="OUI"
    cinst(8)="SEVIRI"		
    nbscan(8)=1
    cglobal(8)="OUI"
    cinst(9)="MTSAT"			
    nbscan(9)=1
    cglobal(9)="OUI"
    cinst(10)="CGOES"		
    nbscan(10)=1
    cglobal(10)="OUI"
    cinst(11)="ATMS"			
    nbscan(11)=96
    cglobal(11)="DEF"
    cinst(12)="CRIS"				
    nbscan(12)=1
    cglobal(12)="NON"
    cinst(13)="CRISFSR"			
    nbscan(13)=1
    cglobal(13)="NON"
    cinst(14)="AHI"		
    nbscan(14)=1
    cglobal(14)="OUI"
/
 &NAMINC
   etiket_rebm ='XXXXXX'
/
 &NAMDIMO
   NMXOBS=160000,
   NDATAMX=20000000,
/
 &NAMTIME
  DSTEPOBS = 6.d0
  DSTEPOBSINC = 6.0d0
  DWINDOWSIZE = 168.0d0
  REFERENCETIME="start",
  fullyUseExtremeTimeBins=.true.,
/
 &NAMFILT
  NELEMS = 16,
  NLIST(1)=10004,
  NLIST(2)=10051,
  NLIST(3)=12004,
  NLIST(4)=11215,
  NLIST(5)=11216,
  NLIST(6)=12203,
  NLIST(7)=12001,
  NLIST(8)=12192,
  NLIST(9)=11003,
  NLIST(10)=11004,
  NLIST(11)=10194,
  NLIST(12)=12062,
  NLIST(13)=12063,
  NLIST(14)=12163,
  NLIST(15)=15036,
  NLIST(16)=15031,
  NFLAGS=3,
  NLISTFLG(1)=2,
  NLISTFLG(2)=4,
  NLISTFLG(3)=5,
  NLISTFLG(4)=-5,
  NLISTFLG(5)=-8,
  list_topoFilt(1) = 'TO'
  RLIMLVHU=70.D0,
/
 &NAMRMAT
   rmat_lnonDiagR=.false.
/
 &NAMSTATE
   addHeightSfcOffset = .false.
   RHUMIN  = 1.0D-07
   ANLVAR(1)   ='UU'
   ANLVAR(2)   ='VV'
   ANLVAR(3)   ='TT'
   ANLVAR(4)   ='HU'
   ANLVAR(5)   ='P0'
   ANLVAR(6)   ='TG'
/
 &NAMTOV   
   CSATID(1)        = 'AQUA',
   CINSTRUMENTID(1) = 'AIRS',
   CSATID(2)        = 'METOP-2',
   CINSTRUMENTID(2) = 'IASI',
   CSATID(3)        = 'NOAA15',
   CINSTRUMENTID(3) = 'AMSUA',
   CSATID(4)        = 'NOAA16',
   CINSTRUMENTID(4) = 'AMSUA',
   CSATID(5)        = 'AQUA',
   CINSTRUMENTID(5) = 'AMSUA',
   CSATID(6)        = 'NOAA18',
   CINSTRUMENTID(6) = 'AMSUA',
   CSATID(7)        = 'NOAA15',
   CINSTRUMENTID(7) = 'AMSUB',
   CSATID(8)        = 'NOAA16',
   CINSTRUMENTID(8) = 'AMSUB',
   CSATID(9)        = 'NOAA17',
   CINSTRUMENTID(9) = 'AMSUB',
   CSATID(10)        = 'NOAA18',
   CINSTRUMENTID(10) = 'MHS',
   CSATID(11)        = 'DMSP16',
   CINSTRUMENTID(11) = 'SSMIS',
   CSATID(12)        = 'GOES13',
   CINSTRUMENTID(12) = 'GOESIMAGER',
   CSATID(13)        = 'MSG2',
   CINSTRUMENTID(13) = 'SEVIRI',
   CSATID(14)        = 'METEOSAT7',
   CINSTRUMENTID(14) = 'MVIRI',
   CSATID(15)        = 'METOP-2',
   CINSTRUMENTID(15) = 'AMSUA',
   CSATID(16)        = 'METOP-2',
   CINSTRUMENTID(16) = 'MHS',
   CSATID(17)        = 'NOAA19',
   CINSTRUMENTID(17) = 'AMSUA',
   CSATID(18)        = 'NOAA19',
   CINSTRUMENTID(18) = 'MHS',
   CSATID(19)        = 'METOP-1',
   CINSTRUMENTID(19) = 'IASI',
   CSATID(20)        = 'DMSP17',
   CINSTRUMENTID(20) = 'SSMIS',
   CSATID(21)        = 'DMSP18',
   CINSTRUMENTID(21) = 'SSMIS',
   CSATID(22)        = 'GOES15',
   CINSTRUMENTID(22) = 'GOESIMAGER',
   CSATID(23)        = 'MSG3',
   CINSTRUMENTID(23) = 'SEVIRI',
   CSATID(24)        = 'MTSAT1',
   CINSTRUMENTID(24) = 'GMSMTSAT',
   CSATID(25)        = 'MTSAT2',
   CINSTRUMENTID(25) = 'GMSMTSAT',
   CSATID(26)        = 'METOP-1',
   CINSTRUMENTID(26) = 'AMSUA',
   CSATID(27)        = 'METOP-1',
   CINSTRUMENTID(27) = 'MHS',
   CSATID(28)        = 'NPP',
   CINSTRUMENTID(28) = 'ATMS',
   CSATID(29)        = 'NPP',
   CINSTRUMENTID(29) = 'CRIS',
   CSATID(30)        = 'HMWARI-8',
   CINSTRUMENTID(30) = 'AHI',
   LDBGTOV    = .FALSE.,
   CRTMODL    = 'RTTOV',
   regLimitExtrap=.false.
/
 &NAMCODTYP
/
 &NAMGPSRO
  LEVELGPSRO=2,
  SURFMIN  = 1000.D0,
  HSFMIN   = 1000.D0,
  HTPMAX   = 40000.D0,
  BGCKBAND = 0.05D0,
/
 &NAMGPSGB
   DZMIN       = 2.0D0,
   DZMAX       = 1000.0D0,
   YZTDERR     = 0.0D0,
   LASSMET     = .TRUE.,
   LLBLMET     = .TRUE.,
   YSFERRWGT   = 1.00D0,
   YZDERRWGT   = 1.00D0,
   LBEVIS      = .TRUE.,
   IREFOPT     = 1,
   L1OBS       = .FALSE.,
   LTESTOP     = .FALSE.,
   IZTDOP      = 1,
/
 &NAMBURP_FILTER_SFC
  BNBITSOFF=0,
  BBITOFF(1)=2,
  BBITOFF(2)=4,
  BBITOFF(3)=5,
  BBITOFF(4)=-5,
  NELEMS_SFC=10,
  BLISTELEMENTS_SFC=10004,12004,10051,12203,11011,11012,13220,15031,15032,15035
/
 &NAMBURP_FILTER_CONV
  BNBITSOFF=0,
  BBITOFF(1)=2,
  BBITOFF(2)=4,
  BBITOFF(3)=5,
  BBITOFF(4)=-5,
  BBITOFF(5)=-8,
  NELEMS=10,
  BLISTELEMENTS=12001,11001,11002,12192,10194,15036,11011,11012,13210,13220
/
 &NAMBURP_FILTER_TOVS
  BNBITSOFF=0,
  BBITOFF(1)=2,
  BBITOFF(2)=4,
  BBITOFF(3)=5,
  BBITOFF(4)=-5,
  BBITOFF(5)=-8,
  NELEMS=1
  BLISTELEMENTS=12163
/
 &NAMBURP_UPDATE
  BN_ITEMS=3,
  BITEMLIST(1)='OMA',
  BITEMLIST(2)='OMP',
  BITEMLIST(3)='OER',
  BITEMLIST(4)='FGE',
  TYPE_RESUME='POSTALT'
  skipUpdate=.TRUE.
/
