 &NAMBGCK
  instName = 'MWHS2'
  debug = .false.
  useUnbiasedObsForClw = .true.
  RESETQC = .false.
  modLSQ = .true.
/
 &namObsSelection
  doThinning = .false.
/
 &THIN_TOVS
  delta   = 150
  deltrad = 75
/
 &NAMDIMO
   NMXOBS=60000,
   NDATAMX=1500000,
/
 &NAMTIME
  DSTEPOBS = 0.25D0
/
 &NAMFILT
  NLIST(1)=12062,
  NLIST(2)=12063,
  NLIST(3)=12163,
  NLISTFLG(1)=4,
  NLISTFLG(2)=5,
  NLISTFLG(3)=9,
  NLISTFLG(4)=11,
  NLISTFLG(5)=12,
  RLIMLVHU   = 70.D0
/
 &NAMSTATE
   addHeightSfcOffset = .false.
   RHUMIN  = 1.0D-07
   ANLVAR(1)   ='UU'
   ANLVAR(2)   ='VV'
   ANLVAR(3)   ='TT'
   ANLVAR(4)   ='HU'
   ANLVAR(5)   ='P0'
   ANLVAR(6)   ='TG'
/
 &NAMTOV
   CSATID(1)        = 'FY3-3',
   CINSTRUMENTID(1) = 'MWHS2',
   LDBGTOV    = .FALSE.,
   CRTMODL    = 'RTTOV',
/
 &NAMCODTYP
/
 &NAMGPSRO
/
 &NAMGPSGB
/
 &NAMBURP_FILTER_SFC
  BNBITSOFF=0,
  BBITOFF(1)=2,
  BBITOFF(2)=4,
  BBITOFF(3)=5,
  BBITOFF(4)=-5,
  NELEMS_SF=7,
  BLISTELEMENTS_SF=10004,12004,10051,12203,11011,11012,13220
  NELEMS_GP=7,
  BLISTELEMENTS_GP=10004,12004,12203,15031,15032,15035,13220
/
 &NAMBURP_FILTER_CONV
  BNBITSOFF=0,
  BBITOFF(1)=2,
  BBITOFF(2)=4,
  BBITOFF(3)=5,
  BBITOFF(4)=-5,
  BBITOFF(5)=-8,
  NELEMS=10,
  BLISTELEMENTS=12001,11001,11002,12192,10194,15036,11011,11012,13210,13220
/
 &NAMBURP_FILTER_TOVS
  BNBITSOFF=0,
  BBITOFF(1)=2,
  BBITOFF(2)=4,
  BBITOFF(3)=5,
  BBITOFF(4)=-5,
  BBITOFF(5)=-8,
  NELEMS=2
  BLISTELEMENTS=12163,12164
/
 &NAMBURP_UPDATE
  BITEMLIST(1)='OMP',
  TYPE_RESUME='BGCKALT'
/
&NAMBIASSAT
    biasActive=.TRUE.,
    BG_STDDEV=2.d1, 2.d1, 2.d1, 2.d1, 2.d1, 2.d1
    biasmode="apply",
    removeBiasCorrection=.false.
    refreshBiasCorrection=.false.
    mimicsatbcor=.true.
    scanBiasCorLength=-1.d0
    centerPredictors=.false.,
    weightedEstimate=.false.,
    outstats=.false.,
    outcoeffcov=.false.,
    filterObs = .false.,
    cinst(1)="AMSUA"
    nbscan(1)=30
    cglobal(1)="DEF"
    cinst(2)="AMSUB"
    nbscan(2)=90
    cglobal(2)="DEF"
    cinst(3)="MHS"
    nbscan(3)=90
    cglobal(3)="DEF"
    cinst(4)="SSMIS"
    nbscan(4)=60
    cglobal(4)="NON"
    cinst(5)="AIRS"
    nbscan(5)=1
    cglobal(5)="NON"
    cinst(6)="IASI"
    nbscan(6)=1
    cglobal(6)="NON"
    cinst(7)="METS7"
    nbscan(7)=1
    cglobal(7)="OUI"
    cinst(8)="SEVIRI"
    nbscan(8)=1
    cglobal(8)="OUI"
    cinst(9)="MTSAT"
    nbscan(9)=1
    cglobal(9)="OUI"
    cinst(10)="CGOES"
    nbscan(10)=1
    cglobal(10)="OUI"
    cinst(11)="ATMS"
    nbscan(11)=96
    cglobal(11)="DEF"
    cinst(12)="CRIS"
    nbscan(12)=1
    cglobal(12)="NON"
    cinst(13)="CRISFSR"
    nbscan(13)=1
    cglobal(13)="NON"
    cinst(14)="AHI"
    nbscan(14)=1
    cglobal(14)="OUI"
    cinst(15)="MWHS2"
    nbscan(15)=98
    cglobal(15)="DEF"
/
