 &NAMCT0
   NCONF  = 121,
/
 &NAMDIM
   NJ      = 120
   NI      = 240
/
 &NAMMIN
   LVARQC=.FALSE.,
/
 &NAMDIMO
   NMXOBS=150000,
   NDATAMX=3000000,
/
 &NAMFILT
  NELEMS = 3,
  NLIST(1)=12062,
  NLIST(2)=12063,
  NLIST(3)=12163,
  NLIST(4)=11003,
  NLIST(5)=11004,
  NLIST(6)=10194,
  NLIST(7)=12192,
  NFLAGS=0,
  NLISTFLG(1)=2,
  NLISTFLG(2)=4,
  NLISTFLG(3)=5,
  NLISTFLG(4)=9,
  NLISTFLG(5)=11,
  NLISTFLG(6)=12,
  RLIMLVHU   = 70.
/
 &NAMPOST
  NPPCVAR    = 13,
  CPPCVAR(1) = 'UU',
  CPPCVAR(2) = 'VV',
  CPPCVAR(3) = 'TT',
  CPPCVAR(4) = 'LQ',
  CPPCVAR(5) = 'P0',
  CPPCVAR(6) = 'TG'
  CPPCVAR(7) = 'HU'
  CPPCVAR(8) = 'GZ'
  CPPCVAR(9) = 'ES'
  CPPCVAR(10)= 'QR'
  CPPCVAR(11)= 'DD'
  CPPCVAR(12)= 'VT'
  CPPCVAR(13)= 'QQ'
/
 &NAMSTATE
   CGNEED(1)   ='UU'
   CGNEED(2)   ='VV'
   CGNEED(3)   ='TT'
   CGNEED(4)   ='HU'
   CGNEED(5)   ='P0'
   CGNEED(6)   ='TG'
/
 &NAMSTATEO
   CMVONEED(1)   ='UU'
   CMVONEED(2)   ='VV'
   CMVONEED(3)   ='TT'
   CMVONEED(4)   ='HU'
   CMVONEED(5)   ='ES'
   CMVONEED(6)   ='GZ'
   CMVONEED(7)   ='P0'
   CMVONEED(8)   ='TG'
/
 &NAMMULTI
  NCPU=4
/
 &NAMTOV
   NSENSORS         =  1,
   CSATID(1)        = 'DMSP16',
   CINSTRUMENTID(1) = 'SSMIS',
   LTSTTOV    = .FALSE.,
   LDBGTOV    = .FALSE.,
   LRTNADIR   = .FALSE.,
   LEVEL1B    = .TRUE.,
   CRTMODL    = 'RTTOV',
/
 &NAMBGCHK
/
 &NAMGPSRO
/
 &NAMSHARED_AAI_3DV
   CVCORD='GEMHYB'
/
 &NAMBURP_FILTER_SFC
  BNBITSOFF=0,
  BBITOFF(1)=2,
  BBITOFF(2)=4,
  BBITOFF(3)=5,
  BBITOFF(4)=-5,
  NELEMS_SFC=7,
  BLISTELEMENTS_SFC=10004,12004,10051,12203,11011,11012,13220
/
 &NAMBURP_FILTER_CONV
  BNBITSOFF=0,
  BBITOFF(1)=2,
  BBITOFF(2)=4,
  BBITOFF(3)=5,
  BBITOFF(4)=-5,
  BBITOFF(5)=-8,
  NELEMS=10,
  BLISTELEMENTS=12001,11001,11002,12192,10194,15036,11011,11012,13210,13220
/
 &NAMBURP_FILTER_TOVS
  BNBITSOFF=0,
  BBITOFF(1)=2,
  BBITOFF(2)=4,
  BBITOFF(3)=5,
  BBITOFF(4)=-5,
  BBITOFF(5)=-8,
  NELEMS=1
  BLISTELEMENTS=12163
/
 &NAMBURP_UPDATE
  BN_ITEMS=1,
  BITEMLIST(1)='OMP',
  BITEMLIST(2)='OMA',
  BITEMLIST(3)='FGE',
  TYPE_RESUME='POSTALT'
/
