 &NAMTIME
  DSTEPOBS = 6.0d0
  DSTEPOBSINC = 6.0d0
/
 &NAMSTATE
  ANLVAR(1) = 'GL'
/
 &NAMDIMO
   NMXOBS  = 6000000
   NDATAMX = 6000000
/
 &NAMFILT
  NLIST(1) = 20222
  NLIST(2) = 20237
  NLIST(3) = 21169
  NLIST(4) = 21199
  NLISTFLG(1) = -4
  NLISTFLG(2) = -2
  NLISTFLG(3) = -1
  NLISTFLG(4) = 0
  NLISTFLG(5) = 3
  NLISTFLG(6) = 6
  NLISTFLG(7) = 7
  NLISTFLG(8) = 10
  NLISTFLG(9) = 11
  NLISTFLG(10) = 13
/
 &namPlatformIce
  listPlatformIce(1) = 'DMSP'
  listPlatformIce(2) = 'GCOM-W1'
  listPlatformIce(3) = 'METOP-1'
  listPlatformIce(4) = 'METOP-2'
  listPlatformIce(5) = 'CIS_DAILY'
  listPlatformIce(6) = 'RS1_IMG'
  listPlatformIce(7) = 'CIS_REGIONAL'
  listPlatformIce(8) = 'iceclake'
  listPlatformIce(9) = 'RCM'
/
 &NAMSQLgl
  listElem="20222,20237,21169,21199"
  sqlNull=" and obsvalue is not null "
/
 &namSQLUpdate
 itemUpdateList(1)='OMP'
 itemUpdateList(2)='OMA'
 itemUpdateList(3)='OER'
 itemUpdateList(4)='FGE'
/
 &namSQLInsert
/
 &NAMAER
   maxAnalysisErrorStdDev = 1.0
/
