 &NAMCT0
   NCONF  = 141
   WRITEANALYSIS = .TRUE.
/
 &NAMTIME
  DSTEPOBS = 3.0d0
  DSTEPOBSINC = 6.0d0
/
 &NAMSTATE
  ANLVAR(1) = 'GL'
/
 &NAMDIMO
   NMXOBS  = 600000
   NDATAMX = 600000
/
 &NAMFILT
  NELEMS = 4
  NLIST(1) = 20222
  NLIST(2) = 20237
  NLIST(3) = 21169
  NLIST(4) = 21199
  NFLAGS = 10
  NLISTFLG(1) = -4
  NLISTFLG(2) = -2
  NLISTFLG(3) = -1
  NLISTFLG(4) = 0
  NLISTFLG(5) = 3
  NLISTFLG(6) = 6
  NLISTFLG(7) = 7
  NLISTFLG(8) = 10
  NLISTFLG(9) = 11
  NLISTFLG(10) = 13
  N_PLATFORM_ICE = 8
  LIST_PLATFORM_ICE(1) = 'DMSP'
  LIST_PLATFORM_ICE(2) = 'GCOM-W1'
  LIST_PLATFORM_ICE(3) = 'METOP-1'
  LIST_PLATFORM_ICE(4) = 'METOP-2'
  LIST_PLATFORM_ICE(5) = 'CIS_DAILY'
  LIST_PLATFORM_ICE(6) = 'RS1_IMG'
  LIST_PLATFORM_ICE(7) = 'CIS_REGIONAL'
  LIST_PLATFORM_ICE(8) = 'iceclake'
/
 &NAMBDIFF
  corr_len = 200*10.0
  stab     = 200*0.2
  nsamp    = 200*10000
  SCALEFACTOR = 200*1.0
  stddevMode = 'HOMO'
  homogeneous_std = 200*0.093
/
 &NAMBHI
   NTRUNC  = 180
   SCALEFACTOR = 200*0.0D0
/
 &NAMBLB
   NTRUNC  = 180
   SCALEFACTOR = 200*0.0D0
   stddevMode = 'GD3D'
   filterStddev = 5
/
 &NAMBEN
   SCALEFACTOR = 200*0.0D0
/
 &NAMSQLgl
  numberElem=4
  listElem="20222,20237,21169,21199"
  sqlExtraDat=" order by id_obs "
  sqlNull=" and obsvalue is not null "
/
 &namSQLUpdate
 numberUpdateItems=4
 itemUpdateList(1)='OMP'
 itemUpdateList(2)='OMA'
 itemUpdateList(3)='OER'
 itemUpdateList(4)='FGE'
/
 &namSQLInsert
/
 &NAMMIN
   NVAMAJ   = 30
   NITERMAX = 20
   NSIMMAX  = 100
   REPSG    = 1.0D-5
   LGRTEST  = .FALSE.
   LWRTHESS = .FALSE.
   LVARQC   = .FALSE.
   NWOQCV   = 5
/
 &NAMINC
   hInterpolationDegree = 'CUBIC'
   etiket_rebm ='XXXXXX'
/
 &NAMCODTYP
/
