 &NAMCT0
   NCONF  = 141,
/
 &NAMBHI
   NTRUNC  = 270,
   SCALEFACTOR   = 11*1.00D0,0.95D0,0.90D0,0.85D0,0.80D0,0.75D0,0.70D0,0.65D0,0.60D0,0.55D0,100*0.5D0
/
 &NAMBEN
   NTRUNC  = 31,
   NENS = 256
   NLEVENS_M = 73
   NLEVENS_T = 74
   SCALEFACTOR=4*0.00D0,0.05D0,0.10D0,0.15D0,0.20D0,0.25D0,0.30D0,0.35D0,0.40D0,0.45D0,100*0.5D0
   ENSPATHNAME='./ensemble/'
/
 &NAMMIN
   NVAMAJ = 25,
   NITERMAX = 70,
   NSIMMAX  = 100,
   REPSG    = 1.0D-5,
   LGRTEST  = .FALSE.,
   LWRTHESS = .TRUE.,
   LVARQC=.TRUE.,
   NWOQCV=5
/
 &NAMDIMO
   NMXOBS=100000,
   NDATAMX=8000000,
/
 &NAMTIME
  DSTEPOBS = 0.25d0
  DSTEPOBSINC = 1.0d0
/
 &NAMFILT
  NELEMS = 16,
  NLIST(1)=10004,
  NLIST(2)=10051,
  NLIST(3)=12004,
  NLIST(4)=11215,
  NLIST(5)=11216,
  NLIST(6)=12203,
  NLIST(7)=12001,
  NLIST(8)=12192,
  NLIST(9)=11003,
  NLIST(10)=11004,
  NLIST(11)=10194,
  NLIST(12)=12062,
  NLIST(13)=12063,
  NLIST(14)=12163,
  NLIST(15)=15036,
  NLIST(16)=15031,
  NFLAGS=3,
  NLISTFLG(1)=2,
  NLISTFLG(2)=4,
  NLISTFLG(3)=5,
  NLISTFLG(4)=-5,
  NLISTFLG(5)=-8,
  LTOPOFILT=.TRUE.,
  RLIMLVHU=70.D0,
/
 &NAMRMAT
   rmat_lnonDiagR=.true.
/
 &NAMPOST
  WRITE4DINC = .TRUE.,
  USETL_LQTOHU = .TRUE.,
  CETIKINC  ='KEH125FA'
  NPPCVAR    = 10,
  CPPCVAR(1) = 'UU',
  CPPCVAR(2) = 'VV',
  CPPCVAR(3) = 'TT',
  CPPCVAR(4) = 'LQ',
  CPPCVAR(5) = 'P0',
  CPPCVAR(6) = 'TG',
  CPPCVAR(7) = 'HU',
  CPPCVAR(8) = 'GZ',
  CPPCVAR(9) = 'ES',
  CPPCVAR(10)= 'VT',
/
 &NAMSTATE
   CGNEED(1)   ='UU'
   CGNEED(2)   ='VV'
   CGNEED(3)   ='TT'
   CGNEED(4)   ='HU'
   CGNEED(5)   ='P0'
   CGNEED(6)   ='TG'
/
 &NAMSTATEO
   RHUMIN  = 1.0D-07
   CMVONEED(1)   ='UU'
   CMVONEED(2)   ='VV'
   CMVONEED(3)   ='TT'
   CMVONEED(4)   ='HU'
   CMVONEED(5)   ='P0'
   CMVONEED(6)   ='TG'
/
 &NAMTOV   
   NSENSORS =  29,
   CSATID(1)        = 'AQUA',
   CINSTRUMENTID(1) = 'AIRS',
   CSATID(2)        = 'METOP-2',
   CINSTRUMENTID(2) = 'IASI',
   CSATID(3)        = 'NOAA15',
   CINSTRUMENTID(3) = 'AMSUA',
   CSATID(4)        = 'NOAA16',
   CINSTRUMENTID(4) = 'AMSUA',
   CSATID(5)        = 'AQUA',
   CINSTRUMENTID(5) = 'AMSUA',
   CSATID(6)        = 'NOAA18',
   CINSTRUMENTID(6) = 'AMSUA',
   CSATID(7)        = 'NOAA15',
   CINSTRUMENTID(7) = 'AMSUB',
   CSATID(8)        = 'NOAA16',
   CINSTRUMENTID(8) = 'AMSUB',
   CSATID(9)        = 'NOAA17',
   CINSTRUMENTID(9) = 'AMSUB',
   CSATID(10)        = 'NOAA18',
   CINSTRUMENTID(10) = 'MHS',
   CSATID(11)        = 'DMSP16',
   CINSTRUMENTID(11) = 'SSMIS',
   CSATID(12)        = 'GOES13',
   CINSTRUMENTID(12) = 'GOESIMAGER',
   CSATID(13)        = 'MSG2',
   CINSTRUMENTID(13) = 'SEVIRI',
   CSATID(14)        = 'METEOSAT7',
   CINSTRUMENTID(14) = 'MVIRI',
   CSATID(15)        = 'METOP-2',
   CINSTRUMENTID(15) = 'AMSUA',
   CSATID(16)        = 'METOP-2',
   CINSTRUMENTID(16) = 'MHS',
   CSATID(17)        = 'NOAA19',
   CINSTRUMENTID(17) = 'AMSUA',
   CSATID(18)        = 'NOAA19',
   CINSTRUMENTID(18) = 'MHS',
   CSATID(19)        = 'METOP-1',
   CINSTRUMENTID(19) = 'IASI',
   CSATID(20)        = 'DMSP17',
   CINSTRUMENTID(20) = 'SSMIS',
   CSATID(21)        = 'DMSP18',
   CINSTRUMENTID(21) = 'SSMIS',
   CSATID(22)        = 'GOES15',
   CINSTRUMENTID(22) = 'GOESIMAGER',
   CSATID(23)        = 'MSG3',
   CINSTRUMENTID(23) = 'SEVIRI',
   CSATID(24)        = 'MTSAT1',
   CINSTRUMENTID(24) = 'GMSMTSAT',
   CSATID(25)        = 'MTSAT2',
   CINSTRUMENTID(25) = 'GMSMTSAT',
   CSATID(26)        = 'METOP-1',
   CINSTRUMENTID(26) = 'AMSUA',
   CSATID(27)        = 'METOP-1',
   CINSTRUMENTID(27) = 'MHS',
   CSATID(28)        = 'NPP',
   CINSTRUMENTID(28) = 'ATMS',
   CSATID(29)        = 'NPP',
   CINSTRUMENTID(29) = 'CRIS',
   LDBGTOV    = .FALSE.,
   CRTMODL    = 'RTTOV',
/
 &NAMSAT
   LISTBURP(1)=054, ! METEOSAT 7
   LISTPLAT(1)="meteosat",
   LISTSAT(1)=007
   LISTBURP(2)=206, ! NOAA 15
   LISTPLAT(2)="noaa",
   LISTSAT(2)=015,
   LISTBURP(3)=207, ! NOAA 16
   LISTPLAT(3)="noaa",
   LISTSAT(3)=016,
   LISTBURP(4)=246, ! DMSP 13
   LISTPLAT(4)="dmsp",
   LISTSAT(4)=013,
   LISTBURP(5)=247, ! DMSP 14
   LISTPLAT(5)="dmsp",
   LISTSAT(5)=014,
   LISTBURP(6)=248, ! DMSP 15
   LISTPLAT(6)="dmsp",
   LISTSAT(6)=015,
   LISTBURP(7)=249, ! DMSP 16
   LISTPLAT(7)="dmsp",
   LISTSAT(7)=016,
   LISTBURP(8)=255, ! GOES 11
   LISTPLAT(8)="goes",
   LISTSAT(8)=011,
   LISTBURP(9)=256, ! GOES 12
   LISTPLAT(9)="goes",
   LISTSAT(9)=012,
   LISTBURP(10)=784,! AQUA (EOS 2)
   LISTPLAT(10)="eos",
   LISTSAT(10)=002,
   LISTBURP(11)=208,! NOAA 17
   LISTPLAT(11)="noaa",
   LISTSAT(11)=017,
   LISTBURP(12)=209,! NOAA 18
   LISTPLAT(12)="noaa",
   LISTSAT(12)=018,
   LISTBURP(13)=003,! METOP-1 (METOP-B)
   LISTPLAT(13)="metop",
   LISTSAT(13)=001,
   LISTBURP(14)=004,! METOP-2 (METOP-A)
   LISTPLAT(14)="metop",
   LISTSAT(14)=002,
   LISTBURP(15)=005,! METOP-3 (METOP-C)
   LISTPLAT(15)="metop",
   LISTSAT(15)=003,
   LISTBURP(16)=223,! NOAA 19
   LISTPLAT(16)="noaa",
   LISTSAT(16)=019,
   LISTBURP(17)=171,! MTSAT-1R
   LISTPLAT(17)="mtsat-1r",
   LISTSAT(17)=001,
   LISTBURP(18)=056,! METEOSAT 9 (MSG 2)
   LISTPLAT(18)="msg",
   LISTSAT(18)=002,
   LISTBURP(19)=257,! GOES 13
   LISTPLAT(19)="goes",
   LISTSAT(19)=013,
   LISTBURP(20)=285,! DMSP17
   LISTPLAT(20)="dmsp",
   LISTSAT(20)=017,
   LISTBURP(21)=286,! DMSP18
   LISTPLAT(21)="dmsp",
   LISTSAT(21)=018,
   LISTBURP(22)=224,! NPP
   LISTPLAT(22)="jpss",
   LISTSAT(22)=000,
   LISTBURP(23)=259,! GOES 15
   LISTPLAT(23)="goes",
   LISTSAT(23)=015, 
   LISTBURP(24)=172,! MTSAT-2
   LISTPLAT(24)="mtsat",
   LISTSAT(24)=002,
   LISTBURP(25)=258,! GOES 14
   LISTPLAT(25)="goes",
   LISTSAT(25)=014,
   LISTBURP(26)=057,! METEOSAT 10 alias MSG 3
   LISTPLAT(26)="msg",
   LISTSAT(26)=003,
   LISTBURP(27)=070,! METEOSAT 11 alias MSG 4
   LISTPLAT(27)="msg",
   LISTSAT(27)=004,
/
 &NAMINST
   LISTBURP(1)=050
   LISTINSTRUM(1)="atsr",
   LISTBURP(2)=203,
   LISTINSTRUM(2)="mhs",
   LISTBURP(3)=205,
   LISTINSTRUM(3)="mviri",
   LISTBURP(4)=207, 
   LISTINSTRUM(4)="seviri",
   LISTBURP(5)=221, 
   LISTINSTRUM(5)="iasi",
   LISTBURP(6)=295,
   LISTINSTRUM(6)="gmsim",
   LISTBURP(7)=296, 
   LISTINSTRUM(7)="gmsim",
   LISTBURP(8)=365, 
   LISTINSTRUM(8)="tmi",
   LISTBURP(9)=389, 
   LISTINSTRUM(9)="modis",
   LISTBURP(10)=420,
   LISTINSTRUM(10)="airs",
   LISTBURP(11)=570,
   LISTINSTRUM(11)="amsua",
   LISTBURP(12)=571,
   LISTINSTRUM(12)="amsua",
   LISTBURP(13)=572,
   LISTINSTRUM(13)="amsua",
   LISTBURP(14)=573,
   LISTINSTRUM(14)="amsua",
   LISTBURP(15)=574,
   LISTINSTRUM(15)="amsub",
   LISTBURP(16)=590,
   LISTINSTRUM(16)="avhrr",
   LISTBURP(17)=591,
   LISTINSTRUM(17)="avhrr",
   LISTBURP(18)=592,
   LISTINSTRUM(18)="avhrr",
   LISTBURP(19)=605,
   LISTINSTRUM(19)="hirs",
   LISTBURP(20)=606,
   LISTINSTRUM(20)="hirs",
   LISTBURP(21)=607,
   LISTINSTRUM(21)="hirs",
   LISTBURP(22)=615,
   LISTINSTRUM(22)="goesim",
   LISTBURP(23)=620,
   LISTINSTRUM(23)="cris",
   LISTBURP(24)=621,
   LISTINSTRUM(24)="atms",
   LISTBURP(25)=626,
   LISTINSTRUM(25)="goessd",
   LISTBURP(26)=623,
   LISTINSTRUM(26)="msu",
   LISTBURP(27)=627,
   LISTINSTRUM(27)="ssu",
   LISTBURP(28)=905,	
   LISTINSTRUM(28)="ssmi",
   LISTBURP(29)=908,
   LISTINSTRUM(29)="ssmis",
   LISTBURP(30)=2047,
   LISTINSTRUM(30)="airs",
   LISTBURP(31)=297,
   LISTINSTRUM(31)="ahi",
/ 
 &NAMCHANOFFSET
   LISTOFFSET(1)=27,
   LISTINSTRUM(1)="amsua",
   LISTOFFSET(2)=42,
   LISTINSTRUM(2)="amsub",
   LISTOFFSET(3)=42,
   LISTINSTRUM(3)="mhs",   
   LISTOFFSET(4)=3,
   LISTINSTRUM(4)="seviri",   
   LISTOFFSET(5)=18,
   LISTINSTRUM(5)="goesim",   
/
 &NAMTOVSINST
   inst_names(1)='amsua',
   inst_names(2)='amsub',
   inst_names(3)='mhs',
   inst_names(4)='ssmis',
   inst_names(5)='atms',
   inst_names(6)='airs',
   inst_names(7)='iasi',
   inst_names(8)='cris',
   inst_names(9)='radianceclear',
/
 &NAMHYPER
   name_inst(1)='airs',
   name_inst(2)='iasi',
   name_inst(3)='cris',
/
 &NAMGEO
   name_inst(1)='goesim',
   name_inst(2)='ahi',
   name_inst(3)='mviri',
   name_inst(4)='seviri',
   name_inst(5)='gmsim',
/
 &NAMCODTYP
   cnames(1)='SYNOPNONAUTO',
   icod(1)=12, 
   cnames(2)='SHIPNONAUTO',
   icod(2)=13, 
   cnames(3)='SYNOPMOBIL',
   icod(3)=14, 
   cnames(4)='METAR',
   icod(4)=15, 
   cnames(5)='SPECI',
   icod(5)=16, 
   cnames(6)='DRIFTER',
   icod(6)=18, 
   cnames(7)='RADOB',
   icod(7)=20, 
   cnames(8)='RADPREP',
   icod(8)=22, 
   cnames(9)='PILOT',
   icod(9)=32, 
   cnames(10)='PILOTSHIP',
   icod(10)=33, 
   cnames(11)='PILOTMOBIL',
   icod(11)=34, 
   cnames(12)='TEMP',
   icod(12)=35, 
   cnames(13)='TEMPSHIP',
   icod(13)=36, 
   cnames(14)='TEMPDROP',
   icod(14)=37, 
   cnames(15)='TEMPMOBIL',
   icod(15)=38, 
   cnames(16)='ROCOB',
   icod(16)=39, 
   cnames(17)='ROCOBSHIP',
   icod(17)=40, 
   cnames(18)='CODAR',
   icod(18)=41, 
   cnames(19)='AMDAR',
   icod(19)=42, 
   cnames(20)='ICEAN',
   icod(20)=44, 
   cnames(21)='IAC',
   icod(21)=45, 
   cnames(22)='IACFLEET',
   icod(22)=46, 
   cnames(23)='GRID',
   icod(23)=47, 
   cnames(24)='GRAF',
   icod(24)=49, 
   cnames(25)='WINTEM',
   icod(25)=50, 
   cnames(26)='TAF',
   icod(26)=51, 
   cnames(27)='ARFOR',
   icod(27)=53, 
   cnames(28)='ROFOR',
   icod(28)=54, 
   cnames(29)='RADOF',
   icod(29)=57, 
   cnames(30)='MAFOR',
   icod(30)=61, 
   cnames(31)='TRACKOB',
   icod(31)=62, 
   cnames(32)='BATHY',
   icod(32)=63, 
   cnames(33)='TESAC',
   icod(33)=64, 
   cnames(34)='WAVEOB',
   icod(34)=65, 
   cnames(35)='HYDRA',
   icod(35)=67, 
   cnames(36)='HYFOR',
   icod(36)=68, 
   cnames(37)='CLIMAT',
   icod(37)=71, 
   cnames(38)='CLIMATSHIP',
   icod(38)=72, 
   cnames(39)='NACLI',
   icod(39)=73, 
   cnames(40)='CLIMATTEMP',
   icod(40)=75, 
   cnames(41)='CLIMATTEMPSHIP',
   icod(41)=76, 
   cnames(42)='SFAZI',
   icod(42)=81, 
   cnames(43)='SFLOC',
   icod(43)=82, 
   cnames(44)='SFAZU',
   icod(44)=83, 
   cnames(45)='SAREP',
   icod(45)=85, 
   cnames(46)='SATEM',
   icod(46)=86, 
   cnames(47)='SARAD',
   icod(47)=87, 
   cnames(48)='SATOB',
   icod(48)=88, 
   cnames(49)='GRIB',
   icod(49)=92, 
   cnames(50)='BUFR',
   icod(50)=94, 
   cnames(51)='SFCAQ',
   icod(51)=127, 
   cnames(52)='AIREP',
   icod(52)=128, 
   cnames(53)='PIREP',
   icod(53)=129, 
   cnames(54)='PROFWIND',
   icod(54)=130, 
   cnames(55)='SYNOPSUPEROB',
   icod(55)=131, 
   cnames(56)='AIREPSUPEROB',
   icod(56)=132, 
   cnames(57)='SASYNOP',
   icod(57)=133, 
   cnames(58)='PAOBS',
   icod(58)=134, 
   cnames(59)='TEMPPILOT',
   icod(59)=135, 
   cnames(60)='TEMPSYNOP',
   icod(60)=136, 
   cnames(61)='PILOTSYNOP',
   icod(61)=137, 
   cnames(62)='TEMPPILOTSYNOP',
   icod(62)=138, 
   cnames(63)='TEMPPILOTSHIP',
   icod(63)=139, 
   cnames(64)='TEMPSHIPSHIP',
   icod(64)=140, 
   cnames(65)='TEMPSSHIPSHIP',
   icod(65)=141, 
   cnames(66)='PILOTSHIPSHIP',
   icod(66)=142, 
   cnames(67)='SASWOBNONAUTO',
   icod(67)=143, 
   cnames(68)='SASWOBAUTO',
   icod(68)=144, 
   cnames(69)='SYNOPPATROL',
   icod(69)=145, 
   cnames(70)='ASYNOPAUTO',
   icod(70)=146, 
   cnames(71)='ASHIPAUTO',
   icod(71)=147, 
   cnames(72)='SASWOBNONAUTOSPECIAL',
   icod(72)=148, 
   cnames(73)='SASWOBAUTOSPECIAL',
   icod(73)=149, 
   cnames(74)='PSEUDOSFC',
   icod(74)=150, 
   cnames(75)='PSEUDOALT',
   icod(75)=151, 
   cnames(76)='PSEUDOSFCREP',
   icod(76)=152, 
   cnames(77)='PSEUDOALTREP',
   icod(77)=153, 
   cnames(78)='ACARS',
   icod(78)=157, 
   cnames(79)='HUMSAT',
   icod(79)=158, 
   cnames(80)='TEMPPILOTMOBIL',
   icod(80)=159, 
   cnames(81)='TEMPSYNOPMOBIL',
   icod(81)=160, 
   cnames(82)='PILOTSYNOPMOBIL',
   icod(82)=161, 
   cnames(83)='TEMPPILOTSYNOPMOBIL',
   icod(83)=162, 
   cnames(84)='RADAR',
   icod(84)=163, 
   cnames(85)='AMSUA',
   icod(85)=164, 
   cnames(86)='SCAT',
   icod(86)=167, 
   cnames(87)='SSMI',
   icod(87)=168, 
   cnames(88)='RO',
   icod(88)=169, 
   cnames(89)='OZONE',
   icod(89)=170, 
   cnames(90)='METEOSAT',
   icod(90)=171, 
   cnames(91)='SHEF',
   icod(91)=172, 
   cnames(92)='SAR',
   icod(92)=174, 
   cnames(93)='ALTIM',
   icod(93)=175, 
   cnames(94)='ADS',
   icod(94)=177, 
   cnames(95)='ICECLAKE',
   icod(95)=178, 
   cnames(96)='ICECOCEAN',
   icod(96)=179, 
   cnames(97)='GOES',
   icod(97)=180, 
   cnames(98)='AMSUB',
   icod(98)=181, 
   cnames(99)='MHS',
   icod(99)=182, 
   cnames(100)='AIRS',
   icod(100)=183, 
   cnames(101)='RADIANCE',
   icod(101)=184, 
   cnames(102)='RADIANCECLEAR',
   icod(102)=185, 
   cnames(103)='IASI',
   icod(103)=186, 
   cnames(104)='WINDSBUFR',
   icod(104)=188, 
   cnames(105)='GPSSFC',
   icod(105)=189, 
   cnames(106)='ATMS',
   icod(106)=192, 
   cnames(107)='CRIS',
   icod(107)=193, 
   cnames(108)='SMOSSMAP',
   icod(108)=194, 
   cnames(109)='CHEMREMOTE',
   icod(109)=195, 
   cnames(110)='CHEMINSITU',
   icod(110)=196, 
   cnames(111)='ASCAT',
   icod(111)=254, 
   cnames(112)='SSMIS',
   icod(112)=168, 
/
 &NAMBGCKIR
   NINST=3,
   INST(1)='AIRS',
   IWINDOW(1)=787,
   IWINDOW_ALT(1)=950,
   ILIST1(1,1)=528,
   ILIST1(1,2)=787,
   ILIST1(1,3)=950,
   ILIST1(1,4)=2209,
   ILIST2(1,1)=204,
   ILIST2(1,2)=221,
   ILIST2(1,3)=232,
   ILIST2(1,4)=252,
   ILIST2(1,5)=262,
   ILIST2(1,6)=272,
   ILIST2(1,7)=299,
   ILIST2(1,8)=305,
   ILIST2(1,9)=310,
   ILIST2(1,10)=355,
   ILIST2(1,11)=362,
   ILIST2(1,12)=375,
   ILIST2(1,13)=375,
   ILIST2_PAIR(1,1)=252,
   ILIST2_PAIR(1,2)=262,
   ILIST2_PAIR(1,3)=272,
   ILIST2_PAIR(1,4)=299,
   ILIST2_PAIR(1,5)=305,
   ILIST2_PAIR(1,6)=310,
   ILIST2_PAIR(1,7)=355,
   ILIST2_PAIR(1,8)=362,
   ILIST2_PAIR(1,9)=375,
   ILIST2_PAIR(1,10)=375,
   ILIST2_PAIR(1,11)=262,
   ILIST2_PAIR(1,12)=252,
   ILIST2_PAIR(1,13)=204,
   ICHN_SUN(1)=1865,
   INST(2)='IASI',
   IWINDOW(2)=1090,
   IWINDOW_ALT(2)=1133,
   ILIST1(2,1)=705,
   ILIST1(2,2)=1090,
   ILIST1(2,3)=1133,
   ILIST1(2,4)=7475,
   ILIST2(2,1)=252,
   ILIST2(2,2)=269,
   ILIST2(2,3)=285,
   ILIST2(2,4)=309,
   ILIST2(2,5)=320,
   ILIST2(2,6)=332,
   ILIST2(2,7)=363,
   ILIST2(2,8)=371,
   ILIST2(2,9)=375,
   ILIST2(2,10)=433,
   ILIST2(2,11)=442,
   ILIST2(2,12)=459,
   ILIST2(2,13)=459,
   ILIST2_PAIR(2,1)=309,
   ILIST2_PAIR(2,2)=320,
   ILIST2_PAIR(2,3)=332,
   ILIST2_PAIR(2,4)=363,
   ILIST2_PAIR(2,5)=371,
   ILIST2_PAIR(2,6)=375,
   ILIST2_PAIR(2,7)=433,
   ILIST2_PAIR(2,8)=442,
   ILIST2_PAIR(2,9)=459,
   ILIST2_PAIR(2,10)=459,
   ILIST2_PAIR(2,11)=320,
   ILIST2_PAIR(2,12)=309,
   ILIST2_PAIR(2,13)=252,
   ICHN_SUN(2)=5446,
   INST(3)='CRIS',
   IWINDOW(3)=427,
   IWINDOW_ALT(3)=534,
   ILIST1(3,1)=275,
   ILIST1(3,2)=427,
   ILIST1(3,3)=534,
   ILIST1(3,4)=1290,
   ILIST2(3,1)=97,
   ILIST2(3,2)=130,
   ILIST2(3,3)=116,
   ILIST2(3,4)=153,
   ILIST2(3,5)=169,
   ILIST2(3,6)=158,
   ILIST2(3,7)=143,
   ILIST2(3,8)=151,
   ILIST2(3,9)=239,
   ILIST2(3,10)=160,
   ILIST2(3,11)=228,
   ILIST2(3,12)=200,
   ILIST2(3,13)=200,
   ILIST2_PAIR(3,1)=153,
   ILIST2_PAIR(3,2)=169,
   ILIST2_PAIR(3,3)=158,
   ILIST2_PAIR(3,4)=143,
   ILIST2_PAIR(3,5)=151,
   ILIST2_PAIR(3,6)=239,
   ILIST2_PAIR(3,7)=160,
   ILIST2_PAIR(3,8)=228,
   ILIST2_PAIR(3,9)=200,
   ILIST2_PAIR(3,10)=200,
   ILIST2_PAIR(3,11)=169,
   ILIST2_PAIR(3,12)=153,
   ILIST2_PAIR(3,13)=97,	
   ICHN_SUN(3)=1147,
   DTW=1.5d0,
   DTL=4.0d0,
   PCO2MIN=56.73d0,
   PCO2MAX=321.5d0,
   NIGHT_ANG=100.d0,
/
 &NAMGPSRO
  LEVELGPSRO=2,
  SURFMIN  = 1000.D0,
  HSFMIN   = 1000.D0,
  HTPMAX   = 40000.D0,
  BGCKBAND = 0.05D0,
/
 &NAMGPSGB
   DZMIN       = 2.0D0,
   DZMAX       = 1000.0D0,
   YZTDERR     = 0.0D0,
   LASSMET     = .TRUE.,
   LLBLMET     = .TRUE.,
   YSFERRWGT   = 1.00D0,
   YZDERRWGT   = 1.00D0,
   LBEVIS      = .TRUE.,
   IREFOPT     = 1,
   L1OBS       = .FALSE.,
   LTESTOP     = .FALSE.,
   IZTDOP      = 1,
/
 &NAMBURP_FILTER_SFC
  BNBITSOFF=0,
  BBITOFF(1)=2,
  BBITOFF(2)=4,
  BBITOFF(3)=5,
  BBITOFF(4)=-5,
  NELEMS_SFC=10,
  BLISTELEMENTS_SFC=10004,12004,10051,12203,11011,11012,13220,15031,15032,15035
/
 &NAMBURP_FILTER_CONV
  BNBITSOFF=0,
  BBITOFF(1)=2,
  BBITOFF(2)=4,
  BBITOFF(3)=5,
  BBITOFF(4)=-5,
  BBITOFF(5)=-8,
  NELEMS=10,
  BLISTELEMENTS=12001,11001,11002,12192,10194,15036,11011,11012,13210,13220
/
 &NAMBURP_FILTER_TOVS
  BNBITSOFF=0,
  BBITOFF(1)=2,
  BBITOFF(2)=4,
  BBITOFF(3)=5,
  BBITOFF(4)=-5,
  BBITOFF(5)=-8,
  NELEMS=1
  BLISTELEMENTS=12163
/
 &NAMBURP_UPDATE
  BN_ITEMS=3,
  BITEMLIST(1)='OMA',
  BITEMLIST(2)='OMP',
  BITEMLIST(3)='OER',
  BITEMLIST(4)='FGE',
  TYPE_RESUME='POSTALT'
/
 &NAMaai_control
   s_nomvars='UU','VV','TT','HU','ES'
   l_writeHighResDelxa=.true.,
   n_nbits=16,
   l_useAnalyzedPSurf = .true.,
   l_huIncFromLq=.false.,
   l_icePhaseEs=.false.
/
 &NAMSHARED_AAI_3DV
   CVCORD='GEMHYB'
/
