 &NAMBHI
  NTRUNC = 250
  SCALEFACTOR=100*1.0
/
 &NAMBEN
/
 &NAMENKF
   NENS=256
   SEED=1
   DATE=2014070112
   REMOVE_MEAN=T
   smoothVariances=F
/
 &NAMTIME
  DSTEPOBS = 6.0d0
  DSTEPOBSINC = 6.0d0
/
 &NAMSTATE
   ANLVAR(1)   ='UU'
   ANLVAR(2)   ='VV'
   ANLVAR(3)   ='TT'
   ANLVAR(4)   ='HU'
   ANLVAR(5)   ='P0'
   ANLVAR(6)   ='TG'
/
 &NAMDIAG
/
 &NAMSPECTRAL
   KREFTYPE = 'max' 
/
