 &NAMSQLTOVS
  listElem='12163' ,
  sqlExtraHeader='' ,
  sqlNull='' ,
/
 &NAMBMAT1D
  scalefactorHI=200*1.0,
  includeAnlVar(1)= 'UU',
  includeAnlVar(2)= 'VV',
  includeAnlVar(3)= 'TT',
  includeAnlVar(4)= 'HU',
  includeAnlVar(5)= 'P0',
  includeAnlVar(6)= 'TG',
/
 &NAMS2C
  SLANTPATH_TO_NL   = .FALSE.,
  SLANTPATH_TO_TLAD = .FALSE.,
  SLANTPATH_RO_NL   = .FALSE.,
  calcHeightPressIncrOnColumn = .FALSE.
/
 &NAMSLP
  TOLERANCEHEIGHTDIFF= 10.0,
  MAXNUMITERATION = 1,
/
 &NAMMIN
   NVAMAJ = 25,
   NITERMAX = 15,
   NSIMMAX  = 100,
   REPSG    = 1.0D-5,
   LGRTEST  = .false.,
   LWRTHESS = .TRUE.,
   LVARQC=.FALSE.,
   NWOQCV=5
/
 &NAMINC
   etiket_rebm ='XXXXXX'
/
 &NAMDIMO
   NMXOBS=200000,
   NDATAMX=2000000,
/
 &NAMTIME
  DWINDOWSIZE = 2.0d0
  DSTEPOBS = 1.00d0
  DSTEPOBSINC = 2.00d0
/
 &NAMFILT
  NLIST(1)=10004,
  NLIST(2)=10051,
  NLIST(3)=12004,
  NLIST(4)=11215,
  NLIST(5)=11216,
  NLIST(6)=12203,
  NLIST(7)=12001,
  NLIST(8)=12192,
  NLIST(9)=11003,
  NLIST(10)=11004,
  NLIST(11)=10194,
  NLIST(12)=12062,
  NLIST(13)=12063,
  NLIST(14)=12163,
  NLIST(15)=15036,
  NLIST(16)=15031,
  NLISTFLG(1)=2,
  NLISTFLG(2)=4,
  NLISTFLG(3)=5,
  list_topoFilt(1) = 'SF'
  list_topoFilt(2) = 'UA'	
  list_topoFilt(3) = 'AI'
  list_topoFilt(4) = 'SW'
  list_topoFilt(5) = 'PR'
  list_topoFilt(6) = 'TO'
  RLIMLVHU=70.D0,
/
 &NAMRMAT
   rmat_lnonDiagR=.false.
/
 &NAMSTATE
   addHeightSfcOffset = .false.
   RHUMIN  = 1.0D-07
   ANLVAR(1)   ='UU'
   ANLVAR(2)   ='VV'
   ANLVAR(3)   ='TT'
   ANLVAR(4)   ='HU'
   ANLVAR(5)   ='P0'
   ANLVAR(6)   ='TG'
   abortonMpiImbalance=.false.
/
 &NAMTOV   
   CSATID(1)        = 'GOES13',
   CINSTRUMENTID(1) = 'GOESIMAGER',
   CSATID(2)        = 'GOES15',
   CINSTRUMENTID(2) = 'GOESIMAGER',
   CSATID(3)        = 'GOES16',
   CINSTRUMENTID(3) = 'ABI',
   CSATID(4)        = 'GOES17',
   CINSTRUMENTID(4) = 'ABI',
   CSATID(5)        = 'HMWARI-8',
   CINSTRUMENTID(5) = 'AHI',
   LDBGTOV    = .FALSE.,
   CRTMODL    = 'RTTOV',
   regLimitExtrap=.true.
/
 &NAMCODTYP
/
 &NAMGPSRO
/
 &NAMGPSGB
/
 &NAMSQLUPDATE
 itemUpdateList(1)='OMA',
 itemUpdateList(2)='OMP',
 itemUpdateList(3)='OER',
/
 &NAMSQLINSERT
/
