
  &namEnsDiagnostics
   nEns         = 4
   pathname     = 'ensemble'
   prefix       = '2019061300_'
/
  &namEnsPostProcModule
   numBits     = 32
/
 &NAMTIME
   DSTEPOBS    = 0.25D0
   DSTEPOBSINC = 0.25D0
   DWINDOWSIZE = 12.0D0
   REFERENCETIME = 'middle'
/
 &NAMVNL
   forceSfcOnly(1) = 'ES'
   forceSfcOnly(2) = 'HR'
   forceSfcOnly(3) = 'TD'
/
 &NAMSTATE
   ANLVAR(1)    ='P0'
   ANLVAR(2)    ='PR'
/
