 &NAMLETKF
   algorithm             = 'LETKF'
   ensPostProcessing     = .true.
   NENS                  = 40
   maxNumLocalObs        = 10000
   weightLatLonStep      = 3
   hLocalize             = 200.0D0
   vLocalize             = 2.0D0
   modifyAmsubObsError   = .false.
   backgroundCheck       = .false.
   huberize              = .false.
   rejectHighLatIR       = .false.
   rejectRadNearSfc      = .false.
   outputEnsObs          = .true.
   obsTimeInterpType     = 'LINEAR'
   mpiDistribution       = 'TILES'
   oseImpact             = .true.
   oseObsFamily          = 'UA'
/
 &namEnsPostProcModule
   alphaRTPP             = 0.40D0
   alphaRTPS             = 0.80D0
   alphaRandomPert       = 0.10D0
   imposeSaturationLimit = .true.
   imposeRttovHuLimits   = .true.
   useOptionTableRecenter = .true.
   useAnalIncMask        = .true.
/
 &NAMWRITEDIAG
   lWriteDiagSql   = .true.
   onlyAssimObs    = .true.
/
 &NAMBHI
   NTRUNC  =          42,
   SCALEFACTOR     = 200*1.00000000000000        ,
/
 &NAMBEN
/
 &NAMDIMO
   NMXOBS=500000
   NDATAMX=1000000
/
 &NAMTIME
   DSTEPOBS    = 3.0d0
   DSTEPOBSINC = 6.0d0
/
 &NAMFILT
  NLIST(1)=10004,
  NLIST(2)=10051,
  NLIST(3)=12004,
  NLIST(4)=11215,
  NLIST(5)=11216,
  NLIST(6)=12203,
  NLIST(7)=12001,
  NLIST(8)=12192,
  NLIST(9)=11003,
  NLIST(10)=11004,
  NLIST(11)=10194,
  NLIST(12)=12062,
  NLIST(13)=12063,
  NLIST(14)=12163,
  NLIST(15)=15036,
  NLIST(16)=15031,
  NLIST(17)=51036,
  NLISTFLG(1)=2,
  NLISTFLG(2)=4,
  NLISTFLG(3)=5,
  !list_topoFilt = 8*'**'
  RLIMLVHU=70.D0,
/
 &NAMRMAT
/
 &NAMSTATE
   RHUMIN  = 1.0D-07
   ANLVAR(1)   ='UU'
   ANLVAR(2)   ='VV'
   ANLVAR(3)   ='TT'
   ANLVAR(4)   ='HU'
   ANLVAR(5)   ='P0'
   ANLVAR(6)   ='TG'
   ANLVAR(7)   ='LPR'
/
 &NAMTOV   
   CSATID(1)        = 'AQUA',
   CINSTRUMENTID(1) = 'AIRS',
   CSATID(2)        = 'METOP-2',
   CINSTRUMENTID(2) = 'IASI',
   CSATID(3)        = 'NOAA15',
   CINSTRUMENTID(3) = 'AMSUA',
   CSATID(4)        = 'NOAA16',
   CINSTRUMENTID(4) = 'AMSUA',
   CSATID(5)        = 'AQUA',
   CINSTRUMENTID(5) = 'AMSUA',
   CSATID(6)        = 'NOAA18',
   CINSTRUMENTID(6) = 'AMSUA',
   CSATID(7)        = 'NOAA15',
   CINSTRUMENTID(7) = 'AMSUB',
   CSATID(8)        = 'NOAA16',
   CINSTRUMENTID(8) = 'AMSUB',
   CSATID(9)        = 'NOAA17',
   CINSTRUMENTID(9) = 'AMSUB',
   CSATID(10)        = 'NOAA18',
   CINSTRUMENTID(10) = 'MHS',
   CSATID(11)        = 'DMSP16',
   CINSTRUMENTID(11) = 'SSMIS',
   CSATID(12)        = 'GOES13',
   CINSTRUMENTID(12) = 'GOESIMAGER',
   CSATID(13)        = 'MSG2',
   CINSTRUMENTID(13) = 'SEVIRI',
   CSATID(14)        = 'METEOSAT7',
   CINSTRUMENTID(14) = 'MVIRI',
   CSATID(15)        = 'METOP-2',
   CINSTRUMENTID(15) = 'AMSUA',
   CSATID(16)        = 'METOP-2',
   CINSTRUMENTID(16) = 'MHS',
   CSATID(17)        = 'NOAA19',
   CINSTRUMENTID(17) = 'AMSUA',
   CSATID(18)        = 'NOAA19',
   CINSTRUMENTID(18) = 'MHS',
   CSATID(19)        = 'METOP-1',
   CINSTRUMENTID(19) = 'IASI',
   CSATID(20)        = 'DMSP17',
   CINSTRUMENTID(20) = 'SSMIS',
   CSATID(21)        = 'DMSP18',
   CINSTRUMENTID(21) = 'SSMIS',
   CSATID(22)        = 'GOES15',
   CINSTRUMENTID(22) = 'GOESIMAGER',
   CSATID(23)        = 'MSG3',
   CINSTRUMENTID(23) = 'SEVIRI',
   CSATID(24)        = 'MTSAT1',
   CINSTRUMENTID(24) = 'GMSMTSAT',
   CSATID(25)        = 'MTSAT2',
   CINSTRUMENTID(25) = 'GMSMTSAT',
   CSATID(26)        = 'METOP-1',
   CINSTRUMENTID(26) = 'AMSUA',
   CSATID(27)        = 'METOP-1',
   CINSTRUMENTID(27) = 'MHS',
   CSATID(28)        = 'NPP',
   CINSTRUMENTID(28) = 'ATMS',
   CSATID(29)        = 'NPP',
   CINSTRUMENTID(29) = 'CRIS',
   CSATID(30)        = 'HMWARI-8',
   CINSTRUMENTID(30) = 'AHI',
   LDBGTOV    = .FALSE.,
   CRTMODL    = 'RTTOV',
   regLimitExtrap=.false.
/
 &NAMCODTYP
/
 &NAMGPSRO
  LEVELGPSRO=2,
  gpsroError = 'STATIC_2014'
  SURFMIN  = 1000.D0,
  HSFMIN   = 1000.D0,
  HTPMAX   = 40000.D0,
  BGCKBAND = 0.05D0,
/
 &NAMGPSGB
   DZMIN       = 2.0D0,
   DZMAX       = 1000.0D0,
   YZTDERR     = 0.0D0,
   LASSMET     = .TRUE.,
   LLBLMET     = .TRUE.,
   YSFERRWGT   = 1.00D0,
   YZDERRWGT   = 1.00D0,
   LBEVIS      = .TRUE.,
   IREFOPT     = 1,
   L1OBS       = .FALSE.,
   LTESTOP     = .FALSE.,
   IZTDOP      = 1,
/
 &NAMSQLradar
  listElem="21036"
  sqlNull=" and obsvalue is not null "  
/
 &namSQLInsert
  itemInsertList(1)=11215
  itemInsertList(2)=11216
  itemInsertList(3)=11003
  itemInsertList(4)=11004
/
 &NAMSQLUpdate
  itemUpdateList(1)='OMP'
  itemUpdateList(2)='OMA'
/
 &NAMBURP_FILTER_SFC
  NELEMS_SFC=10,
  BLISTELEMENTS_SFC=10004,12004,10051,12203,11011,11012,13220,15031,15032,15035
  NELEMS_GPS=6
  LISTE_ELE_GPS=10004,12004,12203,15031,15032,15035
/
 &NAMBURP_FILTER_CONV
  UA_HIGH_PRECISION_TT_ES=.true.,
  READ_QI_GA_MT_SW=.true.,
  NELEMS=10,
  BLISTELEMENTS=12001,11001,11002,12192,10194,15036,11011,11012,13210,13220
/
 &NAMBURP_FILTER_TOVS
  NELEMS=1
  BLISTELEMENTS=12163
/
 &NAMPHY
  NEW_TETENS_COEFS=.true.
/
 &NAMOER
  NEW_OER_SW=.true.
/
 &NAMBGCKCONV
  NEW_BGCK_SW=.true.
/
 &NAMBURP_UPDATE
  BITEMLIST(1)='OMA',
  BITEMLIST(2)='OMP',
  BITEMLIST(3)='OER',
  TYPE_RESUME='POSTALT'
/
