 &NAMTIME
  dstepobs      = 48.0d0
  dstepobsinc   = 48.0d0
  dwindowsize   = 48.0d0
  referenceTime="middle"
/
 &NAMSTATE
  ANLVAR(1) = 'TM'
/
 &NAMDIMO
   NMXOBS=1500000,
   NDATAMX=1500000
/
 &NAMFILT
  NLIST(1)=22042,
  NLISTFLG(1)=2
  NLISTFLG(2)=3
  NLISTFLG(3)=4
  NLISTFLG(4)=10
  NLISTFLG(5)=11
  NLISTFLG(6)=12
/
 &namSSTbiasEstimate
   searchRadius =   25.    
   iceFractionThreshold = 0.01
   maxBias = 5.
   numberPointsBG = 100
   timeInterpType_nl = 'NEAREST'
   numObsBatches = 20
   sensorList(1)='METO-B'
   sensorList(2)='METO-C'
   weightMin = 0.0
   weightMax = 0.2
   saveAuxFields = .True.
   bgTermZeroBias = 0.95
/
 &NAMSQLsfc
   listElem='22042'
   sqlNull=' and obsvalue is not null '  
/
&namReadSSTSat
   listElem='22042'
   sqlExtraDat=' and id_obs in (select id_obs from header where id_stn in ("METO-A","METO-B","METO-C","NOAA19","NPP","AMSR2")) '
   sqlNull=' and obsvalue is not null '
   sqlExtraHeader=' id_stn in ("METO-A","METO-B","METO-C","NOAA19","NPP","AMSR2") '
/
 &namSQLUpdate
/
 &namSQLInsert
/
 &NAMINC
   hInterpolationDegree = 'CUBIC'
   etiket_rebm ='XXXXXX'
/
 &NAMCODTYP
/
