 &NAMCT0
/
 &NCONF
/
 &NAMDIAG
   DIAGDATE = 2016070112
   ONEOBS_LEVS = 1
   ONEOBS_LONS = 198,450
   ONEOBS_LATS = 110,250
/
 &NAMBHI
   NTRUNC  = 250,
   SCALEFACTOR   = 100*0.00D0
/
 &NAMBEN
   NTRUNC       = 80,
   NENS         = 16
   LOCALIZATIONTYPE = 'ScaleDependent'
   WAVEBANDPEAKS = 80,20,4
   hLocalize    = 250.d0 , 500.d0, 1000.0d0
   vLocalize    = -1.d0
   SCALEFACTOR  = 100*1.00D0
   ENSPATHNAME  ='./ensemble/'
   ensContainsFullField = .false.
   varianceSmoothing = 'horizMean'
/
 &NAMSTATE
   ANLVAR(1)   ='UU'
   ANLVAR(2)   ='VV'
   ANLVAR(3)   ='TT'
   ANLVAR(4)   ='P0'
/
 &NAMTIME
  DSTEPOBS = 6.0d0
  DSTEPOBSINC = 6.0d0
/
