 &NAMBHI
  NTRUNC = 250
  SCALEFACTOR=100*1.0
/
 &NAMBEN
/
 &NAMENKF
/
 &NAMTIME
  DSTEPOBS = 6.0d0
  DSTEPOBSINC = 6.0d0
/
 &NAMSTATE
   ANLVAR(1)   ='UU'
   ANLVAR(2)   ='VV'
   ANLVAR(3)   ='TT'
   ANLVAR(4)   ='HU'
   ANLVAR(5)   ='P0'
   ANLVAR(6)   ='TG'
/
 &NAMDIAG
   DIAGDATE = 2014101706
   NUMPERTURBATIONS = 10
/
 &NAMSPECTRAL
   KREFTYPE = 'max' 
/
