&NAMBGCK
  instName = 'AMSUB'
  debug = .false.
  RESETQC = .false.
  clwQcThreshold = 0.3
  useUnbiasedObsForClw =.false.
/
 &namObsSelection
  doThinning = .false.
/
 &NAMDIMO
   NMXOBS=120000,
   NDATAMX=2000000,
/
 &NAMTIME
  DSTEPOBS = 0.25D0
/
 &NAMFILT
  NLIST(1)=12062,
  NLIST(2)=12063,
  NLIST(3)=12163,
  RLIMLVHU   = 70.D0
/
 &NAMSTATE
   addHeightSfcOffset = .false.
   RHUMIN  = 1.0D-07
   ANLVAR(1)   ='UU'
   ANLVAR(2)   ='VV'
   ANLVAR(3)   ='TT'
   ANLVAR(4)   ='HU'
   ANLVAR(5)   ='P0'
   ANLVAR(6)   ='TG'
/
 &NAMS2C
   SLANTPATH_TO_NL  =.TRUE.,
/
 &NAMTOV
   CSATID(1)        = 'NOAA15',
   CINSTRUMENTID(1) = 'AMSUB',
   CSATID(2)        = 'NOAA16',
   CINSTRUMENTID(2) = 'AMSUB',
   CSATID(3)        = 'NOAA18',
   CINSTRUMENTID(3) = 'MHS',
   CSATID(4)       = 'METOP-2',
   CINSTRUMENTID(4)= 'MHS',
   CSATID(5)       = 'METOP-1',
   CINSTRUMENTID(5)= 'MHS',
   CSATID(6)       = 'NOAA19',
   CINSTRUMENTID(6)= 'MHS',
   LDBGTOV    = .FALSE.,
   CRTMODL    = 'RTTOV',
/
 &NAMCODTYP
/
 &NAMGPSRO
/
 &NAMGPSGB
/
 &NAMBURP_FILTER_SFC
  NELEMS_SFC=10,
  BLISTELEMENTS_SFC=10004,12004,10051,12203,11011,11012,13220,15031,15032,15035
/
 &NAMBURP_FILTER_CONV
  NELEMS=10,
  BLISTELEMENTS=12001,11001,11002,12192,10194,15036,11011,11012,13210,13220
/
 &NAMBURP_FILTER_TOVS
  NELEMS=1
  BLISTELEMENTS=12163
/
 &NAMBURP_UPDATE
  BITEMLIST(1)='OMP',
  TYPE_RESUME='BGCKALT'
/
&NAMBIASSAT
    biasActive=.TRUE.,
    BG_STDDEV=2.d1, 2.d1, 2.d1, 2.d1, 2.d1, 2.d1
    biasmode="apply",
    removeBiasCorrection=.false.
    refreshBiasCorrection=.false.
    mimicsatbcor=.true.
    scanBiasCorLength=-1.d0
    centerPredictors=.false.,
    weightedEstimate=.false.,
    outstats=.false.,
    outcoeffcov=.false.,
    filterObs = .false.,
    cinst(1)="AMSUA"
    nbscan(1)=30
    cglobal(1)="DEF"
    cinst(2)="AMSUB"
    nbscan(2)=90
    cglobal(2)="DEF"
    cinst(3)="MHS"
    nbscan(3)=90
    cglobal(3)="DEF"
    cinst(4)="SSMIS"
    nbscan(4)=60
    cglobal(4)="NON"
    cinst(5)="AIRS"
    nbscan(5)=1
    cglobal(5)="NON"
    cinst(6)="IASI"
    nbscan(6)=1
    cglobal(6)="NON"
    cinst(7)="METS7"
    nbscan(7)=1
    cglobal(7)="OUI"
    cinst(8)="SEVIRI"
    nbscan(8)=1
    cglobal(8)="OUI"
    cinst(9)="MTSAT"
    nbscan(9)=1
    cglobal(9)="OUI"
    cinst(10)="CGOES"
    nbscan(10)=1
    cglobal(10)="OUI"
    cinst(11)="ATMS"
    nbscan(11)=96
    cglobal(11)="DEF"
    cinst(12)="CRIS"
    nbscan(12)=1
    cglobal(12)="NON"
    cinst(13)="CRISFSR"
    nbscan(13)=1
    cglobal(13)="NON"
    cinst(14)="AHI"
    nbscan(14)=1
    cglobal(14)="OUI"
/
