&namWriteDiag
 writeObsDb = .true.
/
&NAMobsDB
 numElemIdList = 1
 elemIdList(1) = 12163
/
&namObsDbMIDASBodyUpdate
 numberUpdateItems=3
 updateItemList(1)='OMP'
 updateItemList(2)='BCOR'
 updateItemList(3)='OER'
/
&namObsDbMIDASHeaderUpdate
 numberUpdateItems=0
 updateItemList(1)='STYP'
/
 &NAMDIMO
   NMXOBS=100000,
   NDATAMX=1000000,
/
 &NAMTIME
  DSTEPOBS = 0.25D0
/
 &NAMFILT
  NLIST(1)=12062,
  NLIST(2)=12063,
  NLIST(3)=12163,
  RLIMLVHU   = 70.D0
/ 
 &NAMRMAT
/
 &NAMTOV
  CSATID(1)        = 'NPP',
  CINSTRUMENTID(1) = 'ATMS',
  CSATID(2)        = 'NOAA20',
  CINSTRUMENTID(2) = 'ATMS',
  LDBGTOV    = .FALSE.,
  CRTMODL    = 'RTTOV',
  regLimitExtrap=.false.
/
 &NAMCODTYP
/
 &NAMGPSRO
/
 &NAMGPSGB
/
 &NAMBURP_FILTER_SFC
  BLISTELEMENTS_SFC=10004,12004,10051,12203,11011,11012,13220,15031,15032,15035
  LISTE_ELE_GPS=10004,12004,12203,15031,15032,15035
/
 &NAMBURP_FILTER_CONV
  BLISTELEMENTS=12001,11001,11002,12192,10194,15036,11011,11012,13210,13220
/
 &NAMBURP_FILTER_TOVS
  BLISTELEMENTS=12163
/
 &NAMBURP_UPDATE
  BITEMLIST(1)='OMP',
  BITEMLIST(2)='OER',
  BITEMLIST(3)='FGE',
  TYPE_RESUME='BGCKALT'
/
