 &NAMDIAG
   DIAGDATE = 2022011700
   ONEOBS_LEVS = 1
   ONEOBS_LONLAT(1,:) = 2071, 627
   ONEOBS_LONLAT(2,:) = 2250, 672
   ONEOBS_LONLAT(3,:) = 1857, 713
   ONEOBS_LONLAT(4,:) = 1865, 860
   ONEOBS_LONLAT(5,:) = 2440, 201
/
 &NAMBDIFF
  corr_len = 200*-1
  stab     = 200*0.2
  nsamp    = 200*5000
  SCALEFACTOR = 200*1.0
  stddevMode = 'GD2D'
  useImplicit = 200*.true.
/
 &NAMBHI
   NTRUNC  = 180,
   SCALEFACTOR = 200*0.0D0
/
 &NAMBLB
   NTRUNC  = 180,
   SCALEFACTOR = 200*0.0D0
   stddevMode = 'GD3D'
   filterStddev = 5
/
 &NAMBEN
   SCALEFACTOR = 200*0.0D0
/
 &NAMSTATE
   ANLVAR(1)   ='TM'
/
&NAMTIME
  DSTEPOBS    = 24.0d0
  DSTEPOBSINC = 24.0d0
  DWINDOWSIZE = 24.0d0
/
