 &NAMBHI
   NTRUNC  = 250,
   SCALEFACTOR   = 100*1.0D0
/
 &NAMBEN
   NTRUNC  = 24,
   NENS = 96,
   SCALEFACTOR=    100*0.0D0
/
 &NAMMIN
   NVAMAJ = 25,
   NITERMAX = 50,
   NSIMMAX  = 100,
   REPSG    = 1.0D-5,
   LGRTEST  = .FALSE.,
   LWRTHESS = .FALSE.,
   LVARQC=.TRUE.,
   NWOQCV=5,
/
 &NAMSPECTRAL
/
 &NAMDIMO
   NMXOBS=3000,
   NDATAMX=30000,
/
 &NAMTIME
  DSTEPOBS = 1.0D0
  DSTEPOBSINC = 1.0D0
  DWINDOWSIZE = 1.0D0
/
 &NAMFILT
  NLIST(1)=10004,
  NLIST(2)=10051,
  NLIST(3)=12004,
  NLIST(4)=11215,
  NLIST(5)=11216,
  NLIST(6)=12203,
  NLIST(7)=12001,
  NLIST(8)=12192,
  NLIST(9)=11003,
  NLIST(10)=11004,
  NLIST(11)=10194,
  NLIST(12)=12062,
  NLIST(13)=12063,
  NLIST(14)=12163,
  NLIST(15)=15036,
  NLIST(16)=15031,
  NLIST(17)=11041,
  NLIST(18)=50001,
  NLISTFLG(1)=2,
  NLISTFLG(2)=4,
  NLISTFLG(3)=5,
  list_topoFilt(1) = 'SF'
  RLIMLVHU=70.D0,
  DISCARDLANDSFCWIND=.FALSE.
  list_altDiffMax(1) = 10051,
  value_altDiffMax(1)=  10.0,

/
 &NAMRMAT
/
 &NAMSTATE
   addHeightSfcOffset = .false.
   RHUMIN  = 1.0D-07
   ANLVAR(1)   ='UU'
   ANLVAR(2)   ='VV'
   ANLVAR(3)   ='TT'
   ANLVAR(4)   ='HU'
   ANLVAR(5)   ='P0'
   ANLVAR(6)   ='LVIS'
   ANLVAR(7)   ='WGE'
/
 &NAMTOV   
/
 &NAMCODTYP
/
 &NAMGPSRO
/
 &NAMGPSGB
/
 &NAMBURP_FILTER_SFC
  BNBITSOFF=0,
  BBITOFF(1)=2,
  BBITOFF(2)=4,
  BBITOFF(3)=5,
  BBITOFF(4)=-5,
  NELEMS_SFC=8
  BLISTELEMENTS_SFC=10004,12004,10051,12203,11011,11012,11041,20001
/
 &NAMBURP_FILTER_CONV
  UA_HIGH_PRECISION_TT_ES=.true.,
  READ_QI_GA_MT_SW=.true.,
  BNBITSOFF=0,
  BBITOFF(1)=2,
  BBITOFF(2)=4,
  BBITOFF(3)=5,
  BBITOFF(4)=-5,
  BBITOFF(5)=-8,
  NELEMS=10,
  BLISTELEMENTS=12001,11001,11002,12192,10194,15036,11011,11012,13210,13220
/
 &NAMBURP_FILTER_TOVS
  BNBITSOFF=0,
  BBITOFF(1)=2,
  BBITOFF(2)=4,
  BBITOFF(3)=5,
  BBITOFF(4)=-5,
  BBITOFF(5)=-8,
  NELEMS=1
  BLISTELEMENTS=12163
/
 &NAMPHY
  NEW_TETENS_COEFS=.true.
/
 &NAMOER
  NEW_OER_SW=.true.,
  visAndGustAdded = .true.
/
 &NAMBGCKCONV
  NEW_BGCK_SW=.true.
/
 &NAMBURP_UPDATE
  BITEMLIST(1)='OMA',
  BITEMLIST(2)='OMP',
  BITEMLIST(3)='OER',
  TYPE_RESUME='POSTALT'
/
 &NAMINC
  etiket_rebm ='ENVAR',
/
 &namSurfaceObs
/
