 &NAMCT0
   NCONF  = 141,
   WRITEANALYSIS = .TRUE.
/
 &NAMBHI
   NTRUNC  = 250,
   SCALEFACTOR   = 100*0.5D0
/
 &NAMBEN
   NTRUNC  = 24,
   NENS = 96,
   SCALEFACTOR=    100*0.5D0,
/
 &NAMMIN
   NVAMAJ = 25,
   NITERMAX = 25,
   NSIMMAX  = 100,
   REPSG    = 1.0D-5,
   LGRTEST  = .FALSE.,
   LWRTHESS = .FALSE.,
   LVARQC=.TRUE.,
   NWOQCV=5,
/
 &NAMSPECTRAL
/
 &NAMDIMO
   NMXOBS=3000,
   NDATAMX=30000,
/
 &NAMTIME
  DSTEPOBS = 6.0d0
  DSTEPOBSINC = 6.0d0
/
 &NAMFILT
  NELEMS = 16,
  NLIST(1)=10004,
  NLIST(2)=10051,
  NLIST(3)=12004,
  NLIST(4)=11215,
  NLIST(5)=11216,
  NLIST(6)=12203,
  NLIST(7)=12001,
  NLIST(8)=12192,
  NLIST(9)=11003,
  NLIST(10)=11004,
  NLIST(11)=10194,
  NLIST(12)=12062,
  NLIST(13)=12063,
  NLIST(14)=12163,
  NLIST(15)=15036,
  NLIST(16)=15031,
  NFLAGS=3,
  NLISTFLG(1)=2,
  NLISTFLG(2)=4,
  NLISTFLG(3)=5,
  NLISTFLG(4)=-5,
  NLISTFLG(5)=-8,
  list_topoFilt(1) = 'SF'
  RLIMLVHU=70.D0,
/
 &NAMRMAT
/
 &NAMSTATE
   AddGZSfcOffset = .false.
   RHUMIN  = 1.0D-07
   ANLVAR(1)   ='UU'
   ANLVAR(2)   ='VV'
   ANLVAR(3)   ='TT'
   ANLVAR(4)   ='HU'
   ANLVAR(5)   ='P0'
/
 &NAMTOV   
/
 &NAMSAT
/
 &NAMINST
/ 
 &NAMCHANOFFSET
/
 &NAMTOVSINST
/
 &NAMHYPER
/
 &NAMGEO
/
 &NAMCODTYP
/
 &NAMGPSRO
  GPSRODYNERROR = .FALSE.
/
 &NAMGPSGB
/
 &NAMBURP_FILTER_SFC
  BNBITSOFF=0,
  BBITOFF(1)=2,
  BBITOFF(2)=4,
  BBITOFF(3)=5,
  BBITOFF(4)=-5,
  NELEMS_SFC=10,
  BLISTELEMENTS_SFC=10004,12004,10051,12203,11011,11012,13220,15031,15032,15035
/
 &NAMBURP_FILTER_CONV
  BNBITSOFF=0,
  BBITOFF(1)=2,
  BBITOFF(2)=4,
  BBITOFF(3)=5,
  BBITOFF(4)=-5,
  BBITOFF(5)=-8,
  NELEMS=10,
  BLISTELEMENTS=12001,11001,11002,12192,10194,15036,11011,11012,13210,13220
/
 &NAMBURP_FILTER_TOVS
/
 &NAMBURP_UPDATE
  BN_ITEMS=3,
  BITEMLIST(1)='OMA',
  BITEMLIST(2)='OMP',
  BITEMLIST(3)='OER',
  BITEMLIST(4)='FGE',
  TYPE_RESUME='POSTALT'
/
 &NAMINC
   etiket_rebm ='ENVAR',
/
