 &NAMEXTRACT
   EXTRACTDATE = 2019060106
   lonlatExtract(1,:)= 40,43
   lonlatExtract(2,:)= 40,126
   lonlatExtract(3,:)= 40,258
/
 &NAMBHI
   NTRUNC  = 270,
   SCALEFACTOR   = 100*1.00D0
/
 &NAMBEN
/
 &NAMSTATE
   ANLVAR(1)   ='UU'
   ANLVAR(2)   ='VV'
   ANLVAR(3)   ='TT'
   ANLVAR(4)   ='HU'
   ANLVAR(5)   ='P0'
   ANLVAR(6)   ='TG'
/
 &NAMTIME
  DSTEPOBS = 6.0d0
  DSTEPOBSINC = 6.0d0
/
 &nams2c
/
