 &NAMOBSIO
  obsIOMpiStrategy = 'LIKESPLITFILES'
  obsIOFlag = 123321
  obsIOFactor = 1.5
/
 &NAMDIMO
   NMXOBS=10000,
   NDATAMX=80000,
/
 &NAMCODTYP
/
 &NAMSQLua
  numberElem=11
  listElem="12004,12203,10051,10004,11011,11012,12001,11001,11002,12192,10194"
  sqlExtraDat=" order by id_obs "
  sqlNull=" and obsvalue is not null "
/
 &NAMSQLgl
  numberElem=1
  listElem="20222"
  sqlExtraDat=" order by id_obs "
  sqlNull=" and obsvalue is not null "
/
 &namSQLUpdate
 numberUpdateItems=1
 itemUpdateList(1)='VAR'
/
 &namSQLInsert
/
 &NAMBURP_FILTER_CONV
  BNBITSOFF=0,
  BBITOFF(1)=2,
  BBITOFF(2)=4,
  BBITOFF(3)=5,
  BBITOFF(4)=-5,
  BBITOFF(5)=-8,
  NELEMS=10,
  BLISTELEMENTS=12001,11001,11002,12192,10194,15036,11011,11012,13210,13220
/
 &NAMBURP_UPDATE
  BN_ITEMS=3,
  BITEMLIST(1)='VAR',
  BITEMLIST(2)='FLG',
  TYPE_RESUME='POSTALT'
/
