 &NAMTIME
  DSTEPOBS    = 24.0d0
  DSTEPOBSINC = 24.0d0
  DWINDOWSIZE = 24.0d0
/
 &NAMSTATE
  ANLVAR(1) = 'TM'
/
 &NAMDIMO
   NMXOBS=750000,
   NDATAMX=750000
/
 &NAMFILT
  NELEMS = 1,
  NLIST(1)=22042,
  NFLAGS=1,
  NLISTFLG(1)=1
/
 &NAMBDIFF
  corr_len = 200*10.0
  stab     = 200*0.2
  nsamp    = 200*10000
  SCALEFACTOR = 200*1.0
  stddevMode = 'HOMO'
  homogeneous_std = 200*0.093
/
 &NAMBHI
   NTRUNC  = 180,
   SCALEFACTOR = 200*0.0D0
/
 &NAMBLB
   NTRUNC  = 180,
   SCALEFACTOR = 200*0.0D0
   stddevMode = 'GD3D'
   filterStddev = 5
/
 &NAMBEN
   SCALEFACTOR = 200*0.0D0
/
 &NAMSQLsfc
   numberElem=1
   listElem="22042, 7025"
   sqlExtraDat=" order by id_obs "
   sqlNull=" and obsvalue is not null "  
/
 &namSQLUpdate
  numberUpdateItems=4
  itemUpdateList(1)='OMP'
  itemUpdateList(2)='OMA'
  itemUpdateList(3)='OER'
  itemUpdateList(4)='FGE'
/
 &namSQLInsert
/
 &NAMMIN
   NVAMAJ   = 30,
   NITERMAX = 20,
   NSIMMAX  = 100,
   REPSG    = 1.0D-5,
   LGRTEST  = .FALSE.,
   LWRTHESS = .FALSE.,
   LVARQC   = .FALSE.,
   NWOQCV   = 5
/
 &NAMINC
   hInterpolationDegree = 'CUBIC'
   etiket_rebm ='XXXXXX'
/
 &NAMCODTYP
/
