 &NAMCONF
   MODE   = 'TOOLBOX'
/
 &NAMSTATE
   CGNEED(1)   ='UU'
   CGNEED(2)   ='VV'
   CGNEED(3)   ='TT'
   CGNEED(4)   ='HU'
   CGNEED(5)   ='P0'
/
 &NAMENS
   NENS=12
   ENSFILEBASENAME='g_2011020400_006_'  
/
 &NAMCALCSTATS_GLB
   NTRUNC=399
/
 &NAMTOOLBOX
   TOOL='LOCALIZATIONRADII'
/
 &NAMLOCALIZATIONRADII
   HLOC = .TRUE.
   VLOC = .FALSE.
   STRIDEFORHLOC=40
   STRIDEFORVLOC=1
/
