 &NAMCONF
   MODE   = 'BHI'
/
 &NAMSTATE
   ANLVAR(1)   ='UU'
   ANLVAR(2)   ='VV'
   ANLVAR(3)   ='TT'
   ANLVAR(4)   ='HU'
   ANLVAR(5)   ='P0'
/
 &NAMENS
   NENS=120
/
 &NAMCALCSTATS_GLB
   NTRUNC=380
/
 &NAMTIME
/
