 &NAMCT0
/
 &NAMINC
/
 &NAMTIME
  DSTEPOBS = 6.0d0
  DSTEPOBSINC = 6.0d0
/
 &NAMSTATE
   ANLVAR(1)   ='TT'
/
