 &NAMTIME
  dstepobs      = 48.0d0
  dstepobsinc   = 48.0d0
  dwindowsize   = 48.0d0
  referenceTime="middle"
/
 &NAMSTATE
  ANLVAR(1) = 'TM'
/
 &NAMDIMO
   NMXOBS=3500000,
   NDATAMX=3500000
/
 &NAMFILT
  NELEMS = 1,
  NLIST(1)=22042,
  NFLAGS=6,
  NLISTFLG(1)=2
  NLISTFLG(2)=3
  NLISTFLG(3)=4
  NLISTFLG(4)=10
  NLISTFLG(5)=11
  NLISTFLG(6)=12
/
 &namSSTbiasEstimate
   searchRadius =   25.    
   iceFractionThreshold = 0.01
   maxBias = 5.
   numberPointsBG = 250
   timeInterpType_nl = 'NEAREST'
   numObsBatches = 20
   numberSensors = 3
   sensorList(1)='AMSR2'
   sensorList(2)='METO-B'
   sensorList(3)='METO-C'
/
 &NAMSQLsfc
   numberElem=1
   listElem='22042'
   sqlNull=' and obsvalue is not null '  
/
&namReadSSTSat
   numberElem=1
   listElem='22042'
   sqlExtraDat=' and id_obs in (select id_obs from header where id_stn in ("METO-A","METO-B","METO-C","NOAA19","NPP","AMSR2")) '
   sqlNull=' and obsvalue is not null '
   sqlExtraHeader=' id_stn in ("METO-A","METO-B","METO-C","NOAA19","NPP","AMSR2") '
/
 &namSQLUpdate
/
 &namSQLInsert
/
 &NAMMIN
   NVAMAJ   = 30,
   NITERMAX = 50,
   NSIMMAX  = 100,
   REPSG    = 1.0D-5,
   LGRTEST  = .FALSE.,
   LWRTHESS = .FALSE.,
   LVARQC   = .FALSE.,
   NWOQCV   = 5
/
 &NAMINC
   hInterpolationDegree = 'CUBIC'
   etiket_rebm ='XXXXXX'
/
 &NAMCODTYP
/
