 &NAMTIME
  DSTEPOBS    = 24.0d0
  DSTEPOBSINC = 24.0d0
  DWINDOWSIZE = 24.0d0
/
 &NAMSTATE
  ANLVAR(1) = 'TM'
/
 &NAMDIMO
   NMXOBS=1500000,
   NDATAMX=1500000
/
 &NAMFILT
  NELEMS = 1,
  NLIST(1)=22042,
  NFLAGS=6,
  NLISTFLG(1)=2
  NLISTFLG(2)=3
  NLISTFLG(3)=4
  NLISTFLG(4)=10
  NLISTFLG(5)=11
  NLISTFLG(6)=12
/
 &NAMBDIFF
  corr_len = 200*-1
  stab     = 200*0.2
  nsamp    = 200*5000
  SCALEFACTOR = 200*1.0
  stddevMode = 'GD2D'
/
 &NAMBHI
   NTRUNC  = 180,
   SCALEFACTOR = 200*0.0D0
/
 &NAMBLB
   NTRUNC  = 180,
   SCALEFACTOR = 200*0.0D0
   stddevMode = 'GD3D'
   filterStddev = 5
/
 &NAMBEN
   SCALEFACTOR = 200*0.0D0
/

 &namSSTbiasEstimate
   numberDays = 7
   horizontalSearchRadius = 300.
   iceFractionThreshold = 0.1
   numberSatellites = 5
   satelliteList(1)='AMSR2'
   satelliteList(2)='METO-B'
   satelliteList(3)='METO-A'
   satelliteList(4)='NOAA19'
   satelliteList(5)='NPP'
  
/
 &NAMSQLsfc
   numberElem=1
   listElem="22042, 7025"
   sqlExtraDat=" order by id_obs "
   sqlNull=" and obsvalue is not null "  
/
 &namSQLUpdate
  numberUpdateItems=4
  itemUpdateList(1)='OMP'
  itemUpdateList(2)='OMA'
  itemUpdateList(3)='OER'
  itemUpdateList(4)='FGE'
/
 &namSQLInsert
/
 &NAMMIN
   NVAMAJ   = 30,
   NITERMAX = 50,
   NSIMMAX  = 100,
   REPSG    = 1.0D-5,
   LGRTEST  = .FALSE.,
   LWRTHESS = .FALSE.,
   LVARQC   = .FALSE.,
   NWOQCV   = 5
/
 &NAMINC
   hInterpolationDegree = 'CUBIC'
   etiket_rebm ='XXXXXX'
/
 &NAMCODTYP
/
