 &namEnsPostProc
   NENS                     = 256
/
 &namEnsPostProcModule
   writeSubSample           = .true.
   writeSubSampleUnPert     = .true.
   alphaRTPP                = 0.00D0
   alphaRTPS                = 0.00D0
   alphaRandomPert          = 0.26D0
   alphaRandomPertSubSample = 0.43D0
   imposeSaturationLimit    = .true.
   imposeRttovHuLimits      = .true.
   useOptionTableRecenter   = .true.
/
 &NAMBHI
   NTRUNC  =          42,
   SCALEFACTOR     = 200*1.0D0
   SCALEFACTORLQ   = 200*0.25D0
   readWrite_sqrt = .true.
/
 &NAMBEN
/
 &NAMTIME
   DSTEPOBS    = 1.0d0
   DSTEPOBSINC = 6.0d0
/
 &NAMSTATE
   RHUMIN  = 1.0D-07
   abortOnMpiImbalance = .false.
   ANLVAR(1)   ='UU'
   ANLVAR(2)   ='VV'
   ANLVAR(3)   ='TT'
   ANLVAR(4)   ='HU'
   ANLVAR(5)   ='P0'
   ANLVAR(6)   ='TG'
/
 &NAMPHY
  saturationCurve='Tetens_2018a'
/
