 &NAMBHI
  NTRUNC = 180
  SCALEFACTOR = 200*0.0d0
/
 &NAMBEN
  NENS = 16
  SCALEFACTOR = 100*0.5d0
/
 &NAMENKF
   NENS=4
   SEED=1
   DATE=2017010100
   REMOVE_MEAN=T
   WRITE_MPI=F
   MPITOPOINDEPENDENT = .true.
/
 &NAMTIME
  DSTEPOBS = 6.0d0
  DSTEPOBSINC = 6.0d0
/
 &NAMSTATE
   ANLVAR(1)   ='UU'
   ANLVAR(2)   ='VV'
   ANLVAR(3)   ='TT'
   ANLVAR(4)   ='LQ'
   ANLVAR(5)   ='P0'
   ANLVAR(6)   ='TG'
/
