 &NAMBHI
   SCALEFACTOR   = 100*1.0D0
/
 &NAMBEN
   SCALEFACTOR   = 100*0.0D0
/
 &NAMMIN
   NVAMAJ = 25,
   NITERMAX = 70,
   NSIMMAX  = 110,
   REPSG    = 1.0D-5,
   LGRTEST  = .TRUE.,
   LWRTHESS = .TRUE.,
   LVARQC=.TRUE.,
   NWOQCV=5,
/
 &NAMS2C
   SLANTPATH_TO_NL   = .FALSE.,
   SLANTPATH_TO_TLAD = .FALSE.,
   SLANTPATH_RO_NL   = .FALSE.,
   SLANTPATH_RA_NL   = .TRUE.,
   calcHeightPressIncrOnColumn = .FALSE.,
/
 &NAMRADVEL 
   maxRangeInterp = 15000.0D0,
/
 &NAMSQLradvel
  listElem="21014"
  sqlNull=" and obsvalue is not null "
/ 
 &NAMSTATE
   addHeightSfcOffset = .false.
   RHUMIN  = 1.0D-07
   ANLVAR(1)   ='UU'
   ANLVAR(2)   ='VV'
   ANLVAR(3)   ='TT'
   ANLVAR(4)   ='HU'
   ANLVAR(5)   ='P0'
   ANLVAR(6)   ='TG'
/
 &NAMTIME
  DSTEPOBS = 0.25D0
/
 &NAMFILT
   NLIST(1)=11003,
   NLIST(2)=11004,
   NLIST(3)=12192,
   NLIST(4)=10192,
   NLIST(5)=10194,
   NLIST(6)=12001,
   NLIST(7)=10004,
   NLIST(8)=10051,
   NLIST(9)=12004,
   NLIST(10)=11215,
   NLIST(11)=11216,
   NLIST(12)=12203,
   NLIST(13)=12163,
   NLIST(14)=15036,
   NLIST(15)=15031,
   NLIST(16)=11012,
   NLIST(17)=21014,
   NLISTFLG(1)=0,
   NLISTFLG(2)=-1,
   NLISTFLG(3)=-2,
   NLISTFLG(4)=-3,
   NLISTFLG(5)=-4,
   NLISTFLG(6)=-5,
   NLISTFLG(7)=-6,
   NLISTFLG(8)=-7,
   RLIMLVHU=70.,
/
 &NAMDIMO
   NMXOBS=200000,
   NDATAMX=2000000,
/
 &NAMBURP_UPDATE
  BN_ITEMS=3,
  BITEMLIST(1)='OMP',
  BITEMLIST(2)='OER',
  BITEMLIST(3)='ALT',
  TYPE_RESUME='BGCKALT'
/
 &namSQLInsert
  itemInsertList(1)=11215
  itemInsertList(2)=11216
  itemInsertList(3)=11003
  itemInsertList(4)=11004
/
 &namSQLUpdate
 itemUpdateList(1)='OMP'
 itemUpdateList(2)='OMA'
 itemUpdateList(3)='ALT'
/
