 &NAMCT0
   NCONF  = 121,
/ 
&NAMBGCK
  instName = 'AMSUA',
  debug = .false.,
  RESETQC = .false.,
  clwQcThreshold = 0.6,
  useUnbiasedObsForClw =.false.,
  cloudyClwThresholdBcorr = 0.05,
/
 &namObsSelection
  doThinning = .true.
/
 &NAMDIMO
   NMXOBS=120000,
   NDATAMX=2000000,
/

 &NAMTIME
  DSTEPOBS = 0.25D0

/
 &NAMFILT
  NLIST(1)=12062,
  NLIST(2)=12063,
  NLIST(3)=12163,
  RLIMLVHU   = 70.D0
/
 &NAMSTATE
   addHeightSfcOffset = .false.
   RHUMIN  = 1.0D-07
   ANLVAR(1)   ='UU'
   ANLVAR(2)   ='VV'
   ANLVAR(3)   ='TT'
   ANLVAR(4)   ='HU'
   ANLVAR(5)   ='P0'
   ANLVAR(6)   ='TG'
   ANLVAR(7)   ='LWCR'
/
 &NAMTOV
   CSATID(1)        = 'NOAA15',
   CINSTRUMENTID(1) = 'AMSUA',
   CSATID(2)        = 'NOAA16',
   CINSTRUMENTID(2) = 'AMSUA',
   CSATID(3)        = 'AQUA',
   CINSTRUMENTID(3) = 'AMSUA',
   CSATID(4)        = 'NOAA18',
   CINSTRUMENTID(4) = 'AMSUA',
   CSATID(5)        = 'METOP-2',
   CINSTRUMENTID(5) = 'AMSUA',
   CSATID(6)        = 'METOP-1',
   CINSTRUMENTID(6) = 'AMSUA',
   CSATID(7)       = 'NOAA19',
   CINSTRUMENTID(7)= 'AMSUA',
   LDBGTOV    = .FALSE.,
   CRTMODL    = 'RTTOV',
   mwAllskyAssim = .true.,
   INSTRUMENTNAMESUSINGCLW(1) = 'amsua'
   MWINSTRUMUSINGCLW_TL = .true.
   cloudScaleFactor = 0.5D0
   regLimitExtrap=.false.
/
 &NAMCODTYP
/
 &NAMGPSRO
/
 &NAMGPSGB
/
 &NAMADDTOBURP
  addBtClearToBurp=.true.,
  btClearElementId=12164,
  clwFgElementId=13109,
/
 &NAMBURP_FILTER_SFC
  BLISTELEMENTS_SF=10004,12004,10051,12203,11011,11012,13220
  BLISTELEMENTS_GP=10004,12004,12203,15031,15032,15035,13220
/
 &NAMBURP_FILTER_CONV
  BLISTELEMENTS=12001,11001,11002,12192,10194,15036,11011,11012,13210,13220
/
 &NAMBURP_FILTER_TOVS
  BLISTELEMENTS=12163,12164
/
 &NAMBURP_UPDATE
  BITEMLIST(1)='OMP',
  TYPE_RESUME='BGCKALT'
/
&NAMBIASSAT
    biasActive=.TRUE.,
    BG_STDDEV=2.d1, 2.d1, 2.d1, 2.d1, 2.d1, 2.d1
    biasmode="apply",
    dumpToSqliteAfterThinning=.true.
    removeBiasCorrection=.false.
    refreshBiasCorrection=.false.
    mimicsatbcor=.true.
    scanBiasCorLength=-1.d0
    centerPredictors=.false.,
    weightedEstimate=.false.,
    outstats=.false.,
    outcoeffcov=.false.,
    filterObs = .false.,
    cinst(1)="AMSUA"
    nbscan(1)=30
    cglobal(1)="DEF"
    cinst(2)="AMSUB"
    nbscan(2)=90
    cglobal(2)="DEF"
    cinst(3)="MHS"
    nbscan(3)=90
    cglobal(3)="DEF"
    cinst(4)="SSMIS"
    nbscan(4)=60
    cglobal(4)="NON"
    cinst(5)="AIRS"
    nbscan(5)=1
    cglobal(5)="NON"
    cinst(6)="IASI"
    nbscan(6)=1
    cglobal(6)="NON"
    cinst(7)="METS7"
    nbscan(7)=1
    cglobal(7)="OUI"
    cinst(8)="SEVIRI"
    nbscan(8)=1
    cglobal(8)="OUI"
    cinst(9)="MTSAT"
    nbscan(9)=1
    cglobal(9)="OUI"
    cinst(10)="CGOES"
    nbscan(10)=1
    cglobal(10)="OUI"
    cinst(11)="ATMS"
    nbscan(11)=96
    cglobal(11)="DEF"
    cinst(12)="CRIS"
    nbscan(12)=1
    cglobal(12)="NON"
    cinst(13)="CRISFSR"
    nbscan(13)=1
    cglobal(13)="NON"
    cinst(14)="AHI"
    nbscan(14)=1
    cglobal(14)="OUI"
/
 &NAMOER
  mwAllskyTtInflateByOmp = .true.,
  mwAllskyTtInflateByClwDiff = .true.,
/
