 &namObsSelection
   doThinning = .true.
/
 &THIN_HYPER
   removeUnCorrected = .true.
   deltmax = 22
   deltax  = 150
   deltrad = 45
/
 &NAMCT0
   NCONF = 111
/
 &NAMBHI
   SCALEFACTOR   = 100*1.0D0
/
 &NAMBEN
   SCALEFACTOR   = 100*0.0D0
/
 &NAMMIN
   LVARQC=.FALSE.,
/
 &NAMDIMO
   NMXOBS=10000,
   NDATAMX=5100000,
/
 &NAMTIME
  DSTEPOBS = 0.25D0
/
 &NAMFILT
  NELEMS = 3,
  NLIST(1)=12062,
  NLIST(2)=12063,
  NLIST(3)=12163,
  NFLAGS=5,
  NLISTFLG(1)=4,
  NLISTFLG(2)=5,
  NLISTFLG(3)=9,
  NLISTFLG(4)=12,
  NLISTFLG(5)=-5,
  NLISTFLG(6)=2,
  list_topoFilt(1) = 'SF'
  list_topoFilt(2) = 'UA'	
  list_topoFilt(3) = 'AI'
  list_topoFilt(4) = 'SW'
  list_topoFilt(5) = 'PR'
  list_topoFilt(6) = 'TO'
  RLIMLVHU   = 70.D0
/
 &NAMRMAT
/
 &NAMSTATE
   addHeightSfcOffset = .false.
   RHUMIN  = 1.0D-07
   ANLVAR(1)   ='UU'
   ANLVAR(2)   ='VV'
   ANLVAR(3)   ='TT'
   ANLVAR(4)   ='HU'
   ANLVAR(5)   ='P0'
   ANLVAR(6)   ='TG'
   abortOnMpiImbalance = .false.
/
 &NAMTOV
   NSENSORS         =  2,
   CSATID(1)        = 'METOP-1',
   CINSTRUMENTID(1) = 'IASI',
   CSATID(2)        = 'METOP-2',
   CINSTRUMENTID(2) = 'IASI',
   CSATID(3)        = 'AQUA',
   CINSTRUMENTID(3) = 'AIRS',
   CSATID(4)        = 'NPP',
   CINSTRUMENTID(4) = 'CRIS',
   LDBGTOV    = .FALSE.,
   CRTMODL    = 'RTTOV',
/
 &NAMCODTYP
/
 &NAMBGCKIR
   NINST=3,
   INST(1)='AIRS',
   IWINDOW(1)=787,
   IWINDOW_ALT(1)=950,
   ILIST1(1,1)=528,
   ILIST1(1,2)=787,
   ILIST1(1,3)=950,
   ILIST1(1,4)=2209,
   ILIST2(1,1)=204,
   ILIST2(1,2)=221,
   ILIST2(1,3)=232,
   ILIST2(1,4)=252,
   ILIST2(1,5)=262,
   ILIST2(1,6)=272,
   ILIST2(1,7)=299,
   ILIST2(1,8)=305,
   ILIST2(1,9)=310,
   ILIST2(1,10)=355,
   ILIST2(1,11)=362,
   ILIST2(1,12)=375,
   ILIST2(1,13)=375,
   ILIST2_PAIR(1,1)=252,
   ILIST2_PAIR(1,2)=262,
   ILIST2_PAIR(1,3)=272,
   ILIST2_PAIR(1,4)=299,
   ILIST2_PAIR(1,5)=305,
   ILIST2_PAIR(1,6)=310,
   ILIST2_PAIR(1,7)=355,
   ILIST2_PAIR(1,8)=362,
   ILIST2_PAIR(1,9)=375,
   ILIST2_PAIR(1,10)=375,
   ILIST2_PAIR(1,11)=262,
   ILIST2_PAIR(1,12)=252,
   ILIST2_PAIR(1,13)=204,
   ICHN_SUN(1)=1865,
   INST(2)='IASI',
   IWINDOW(2)=1090,
   IWINDOW_ALT(2)=1133,
   ILIST1(2,1)=705,
   ILIST1(2,2)=1090,
   ILIST1(2,3)=1133,
   ILIST1(2,4)=7475,
   ILIST2(2,1)=252,
   ILIST2(2,2)=269,
   ILIST2(2,3)=285,
   ILIST2(2,4)=309,
   ILIST2(2,5)=320,
   ILIST2(2,6)=332,
   ILIST2(2,7)=363,
   ILIST2(2,8)=371,
   ILIST2(2,9)=375,
   ILIST2(2,10)=433,
   ILIST2(2,11)=442,
   ILIST2(2,12)=459,
   ILIST2(2,13)=459,
   ILIST2_PAIR(2,1)=309,
   ILIST2_PAIR(2,2)=320,
   ILIST2_PAIR(2,3)=332,
   ILIST2_PAIR(2,4)=363,
   ILIST2_PAIR(2,5)=371,
   ILIST2_PAIR(2,6)=375,
   ILIST2_PAIR(2,7)=433,
   ILIST2_PAIR(2,8)=442,
   ILIST2_PAIR(2,9)=459,
   ILIST2_PAIR(2,10)=459,
   ILIST2_PAIR(2,11)=320,
   ILIST2_PAIR(2,12)=309,
   ILIST2_PAIR(2,13)=252,
   ICHN_SUN(2)=5446,
   INST(3)='CRIS',
   IWINDOW(3)=427,
   IWINDOW_ALT(3)=534,
   ILIST1(3,1)=275,
   ILIST1(3,2)=427,
   ILIST1(3,3)=534,
   ILIST1(3,4)=1290,
   ILIST2(3,1)=97,
   ILIST2(3,2)=130,
   ILIST2(3,3)=116,
   ILIST2(3,4)=153,
   ILIST2(3,5)=169,
   ILIST2(3,6)=158,
   ILIST2(3,7)=143,
   ILIST2(3,8)=151,
   ILIST2(3,9)=239,
   ILIST2(3,10)=160,
   ILIST2(3,11)=228,
   ILIST2(3,12)=200,
   ILIST2(3,13)=200,
   ILIST2_PAIR(3,1)=153,
   ILIST2_PAIR(3,2)=169,
   ILIST2_PAIR(3,3)=158,
   ILIST2_PAIR(3,4)=143,
   ILIST2_PAIR(3,5)=151,
   ILIST2_PAIR(3,6)=239,
   ILIST2_PAIR(3,7)=160,
   ILIST2_PAIR(3,8)=228,
   ILIST2_PAIR(3,9)=200,
   ILIST2_PAIR(3,10)=200,
   ILIST2_PAIR(3,11)=169,
   ILIST2_PAIR(3,12)=153,
   ILIST2_PAIR(3,13)=97,	
   ICHN_SUN(3)=1147,
   DTW=1.5d0,
   DTL=4.0d0,
   PCO2MIN=56.73d0,
   PCO2MAX=321.5d0,
   NIGHT_ANG=100.d0,
/
 &NAMGPSRO
/
 &NAMGPSGB
/
 &NAMBURP_FILTER_SFC
  BNBITSOFF=0,
  BBITOFF(1)=2,
  BBITOFF(2)=4,
  BBITOFF(3)=5,
  BBITOFF(4)=-5,
  NELEMS_SFC=10,
  BLISTELEMENTS_SFC=10004,12004,10051,12203,11011,11012,13220,15031,15032,15035
/
 &NAMBURP_FILTER_CONV
  BNBITSOFF=0,
  BBITOFF(1)=2,
  BBITOFF(2)=4,
  BBITOFF(3)=5,
  BBITOFF(4)=-5,
  BBITOFF(5)=-8,
  NELEMS=10,
  BLISTELEMENTS=12001,11001,11002,12192,10194,15036,11011,11012,13210,13220
/
 &NAMBURP_FILTER_TOVS
  BNBITSOFF=0,
  BBITOFF(1)=2,
  BBITOFF(2)=4,
  BBITOFF(3)=5,
  BBITOFF(4)=-5,
  BBITOFF(5)=-8,
  NELEMS=1
  BLISTELEMENTS=12163
/
 &NAMBURP_UPDATE
  BN_ITEMS=2,
  BITEMLIST(1)='OMP',
  BITEMLIST(2)='OMA',
  BITEMLIST(3)='FGE',
  TYPE_RESUME='BGCKALT'
/
  &NAMSQLiasi
  listElem='12163'
  numberElem=1
  sqlNull=" and obsvalue is not null "
  sqlExtraHeader="   "
/
  &NAMSQLairs
  listElem='12163'
  numberElem=1
  sqlNull=' and obsvalue is not null '
/
  &NAMSQLUPDATE
  numberUpdateItems=4
  itemUpdateList(4)='OMP'
  itemUpdateList(2)='COR'
  itemUpdateList(1)='VAR'
  itemUpdateList(3)='EMI'
/
  &NAMSQLInsert
/
&NAMBIASSAT
    biasActive=.TRUE.,
    BG_STDDEV=2.d1, 2.d1, 2.d1, 2.d1, 2.d1, 2.d1
    biasmode="apply",
    removeBiasCorrection=.false.
    refreshBiasCorrection=.false.
    mimicsatbcor=.true.
    scanBiasCorLength=-1.d0
    centerPredictors=.false.,
    weightedEstimate=.false.,
    outstats=.false.,
    outcoeffcov=.false.,
    filterObs = .false.,
    cinst(1)="AMSUA"
    nbscan(1)=30
    cglobal(1)="DEF"
    cinst(2)="AMSUB"
    nbscan(2)=90
    cglobal(2)="DEF"
    cinst(3)="MHS"
    nbscan(3)=90
    cglobal(3)="DEF"
    cinst(4)="SSMIS"
    nbscan(4)=60
    cglobal(4)="NON"
    cinst(5)="AIRS"
    nbscan(5)=1
    cglobal(5)="NON"
    cinst(6)="IASI"
    nbscan(6)=1
    cglobal(6)="NON"
    cinst(7)="METS7"
    nbscan(7)=1
    cglobal(7)="OUI"
    cinst(8)="SEVIRI"
    nbscan(8)=1
    cglobal(8)="OUI"
    cinst(9)="MTSAT"
    nbscan(9)=1
    cglobal(9)="OUI"
    cinst(10)="CGOES"
    nbscan(10)=1
    cglobal(10)="OUI"
    cinst(11)="ATMS"
    nbscan(11)=96
    cglobal(11)="DEF"
    cinst(12)="CRIS"
    nbscan(12)=1
    cglobal(12)="NON"
    cinst(13)="CRISFSR"
    nbscan(13)=1
    cglobal(13)="NON"
    cinst(14)="AHI"
    nbscan(14)=1
    cglobal(14)="OUI"
/
