 &NAMDIM
   NJ      = 400,
   NI      = 800,
/
 &NAMSTATE
   CGNEED(1)   ='UU'
   CGNEED(2)   ='VV'
   CGNEED(3)   ='TT'
   CGNEED(4)   ='HU'
   CGNEED(5)   ='P0'
/
 &NAMCALCB
   NENS=180
   NTRUNC=380
   ENSPATHNAME='/users/dor/arma/bue/power7/nmc800x400/'
   ENSFILEBASENAME='nmc_ensemble_'  
/
