 &NAMCONF
   CMODE   = 'BHI'
/
 &NAMSTATE
   ANLVAR(1)   ='UU'
   ANLVAR(2)   ='VV'
   ANLVAR(3)   ='TT'
   ANLVAR(4)   ='HU'
   ANLVAR(5)   ='P0'
/
 &NAMENS
   NENS=160
   ENSFILEBASENAME='2015012000_006_'  
/
 &NAMCALCB_GLB
   NTRUNC=270
/
