 &NAMCONF
   CMODE   = 'BHI'
/
 &NAMSTATE
   ANLVAR(1)   ='UU'
   ANLVAR(2)   ='VV'
   ANLVAR(3)   ='TT'
   ANLVAR(4)   ='HU'
   ANLVAR(5)   ='P0'
/
 &NAMENS
   NENS=10
   ENSFILEBASENAME='2014101706_006_'  
/
 &NAMCALCB_GLB
   NTRUNC=399
/
