 &NAMCONF
   CMODE   = 'BHI'
/
 &NAMSTATE
   CGNEED(1)   ='UU'
   CGNEED(2)   ='VV'
   CGNEED(3)   ='TT'
   CGNEED(4)   ='HU'
   CGNEED(5)   ='P0'
/
 &NAMENS
   NENS=176
   ENSFILEBASENAME='nmc_ensemble_'  
/
 &NAMCALCB_GLB
   NTRUNC=270
/
