 &NAMCONF
   CMODE   = 'BHI'
/
 &NAMSTATE
   CGNEED(1)   ='UU'
   CGNEED(2)   ='VV'
   CGNEED(3)   ='TT'
   CGNEED(4)   ='HU'
   CGNEED(5)   ='P0'
   CGNEED(6)   ='TG'
/
 &NAMENS
   NENS=117
   ENSFILEBASENAME='national_'
   IP2=6
/
 &NAMCALCSTATS_LAM
   NTRUNC    = 250
   GRD_EXT_X = 196
   GRD_EXT_Y = 184
   NORMBYSTDDEV  = .TRUE.
   WRITEENSPERT  = .FALSE.
   CORRELATIONLQ = .TRUE.
/
 &NAMSPECTRAL
   KREFTYPE = 'max' 
/