 &NAMBHI
   SCALEFACTOR   = 100*1.0D0
/
 &NAMBEN
   SCALEFACTOR   = 100*0.0D0
/
 &NAMMIN
   NVAMAJ = 25,
   NITERMAX = 10,
   NSIMMAX  = 100,
   REPSG    = 1.0D-5,
   LGRTEST  = .FALSE.,
   LWRTHESS = .FALSE.,
   LVARQC=.FALSE.,
   NWOQCV=5
/
 &NAMSTATE
   abortOnMpiImbalance = .false.
   RHUMIN  = 1.0D-07
   ANLVAR(1)   ='UU'
   ANLVAR(2)   ='VV'
   ANLVAR(3)   ='TT'
   ANLVAR(4)   ='HU'
   ANLVAR(5)   ='P0'
   ANLVAR(6)   ='TG'
/
 &NAMRMAT
/
 &NAMTIME
  DSTEPOBS = 0.25D0
/
 &NAMFILT
   NELEMS    = 16,
   NLIST(1)=11003,
   NLIST(2)=11004,
   NLIST(3)=12192,
   NLIST(4)=10192,
   NLIST(5)=10194,
   NLIST(6)=12001,
   NLIST(7)=10004,
   NLIST(8)=10051,
   NLIST(9)=12004,
   NLIST(10)=11215,
   NLIST(11)=11216,
   NLIST(12)=12203,
   NLIST(13)=12163,
   NLIST(14)=15036,
   NLIST(15)=15031,
   NLIST(16)=40030,
   NFLAGS=8,
   NLISTFLG(1)=0,
   NLISTFLG(2)=-1,
   NLISTFLG(3)=-2,
   NLISTFLG(4)=-3,
   NLISTFLG(5)=-4,
   NLISTFLG(6)=-5,
   NLISTFLG(7)=-6,
   NLISTFLG(8)=-7,
   RLIMLVHU=70.,
/
 &NAMDIMO
   NMXOBS=200000,
   NDATAMX=2000000,
/
 &NAMTOV
/
 &NAMGPSRO
  SURFMIN  = 1000.D0,
  HSFMIN   = 1000.D0,
  HTPMAX   = 70000.D0,
  BGCKBAND = 0.05D0,
/
 &NAMGPSGB
   DZMIN      = 2.0D0,
   DZMAX      = 1000.0D0,
   YZTDERR    = 0.0D0,
   LASSMET    = .TRUE.,
   LLBLMET    = .FALSE.,
   YSFERRWGT  = 1.00D0,
   YZDERRWGT  = 1.00D0,
   LBEVIS     = .TRUE.,
   IREFOPT    = 1,
   L1OBS      = .FALSE.,
   LTESTOP    = .FALSE.,
   IZTDOP     = 1,
/
 &NAMCODTYP
/
&NAMBURP_FILTER_SFC
  BNBITSOFF=0,
  BBITOFF(1)=2,
  BBITOFF(2)=4,
  BBITOFF(3)=5,
  BBITOFF(4)=-5,
  NELEMS_SFC=10,
  BLISTELEMENTS_SFC=10004,12004,10051,12203,11011,11012,13220,15031,15032,15035
/
 &NAMBURP_FILTER_CONV
  BNBITSOFF=0,
  BBITOFF(1)=2,
  BBITOFF(2)=4,
  BBITOFF(3)=5,
  BBITOFF(4)=-5,
  BBITOFF(5)=-8,
  NELEMS=11,
  BLISTELEMENTS=12001,11001,11002,12192,10194,15036,11011,11012,13210,13220,40030
/
 &NAMBURP_FILTER_TOVS
  BNBITSOFF=0,
  BBITOFF(1)=2,
  BBITOFF(2)=4,
  BBITOFF(3)=5,
  BBITOFF(4)=-5,
  BBITOFF(5)=-8,
  NELEMS=1
  BLISTELEMENTS=12163
/
 &NAMBURP_UPDATE
  BN_ITEMS=1,
  BITEMLIST(1)='OMP',
  BITEMLIST(2)='OMA',
  BITEMLIST(3)='FGE',
  TYPE_RESUME='BGCKALT'
/
 &NAMALADIN_OBS
  do_adjust_aladin=.false.
/
 &NAMSQLAL
  numberElem=12,
  listElem="5021,40030,10004,12001,40029,40030,40031,40032,40033,40034,40036,40037",
  sqlNull=" and obsvalue is not null "
/
 &NAMINC
/
 &namSQLUpdate
 numberUpdateItems=2
 itemUpdateList(1)='OMP'
 itemUpdateList(2)='OMA'
/
 &namSQLInsert
  numberInsertItems=0
/
