 &NAMBHI
  NTRUNC = 270
  SCALEFACTOR = 100*0.5d0
/
 &NAMBEN
  NENS = 16
  SCALEFACTOR = 100*0.5d0
  huMinValue = 1.0D-7
/
 &NAMENKF
   NENS=4
   SEED=1
   REMOVE_MEAN=T
   MPITOPOINDEPENDENT = .true.
/
 &NAMTIME
  DSTEPOBS = 6.0d0
  DSTEPOBSINC = 6.0d0
/
 &NAMSTATE
   RHUMIN  = 1.0D-07
   ANLVAR(1)   ='UU'
   ANLVAR(2)   ='VV'
   ANLVAR(3)   ='TT'
   ANLVAR(4)   ='HU'
   ANLVAR(5)   ='P0'
   ANLVAR(6)   ='TG'
/
