 &NAMCT0
   NCONF  = 121,
/ 
 &namObsSelection
  doThinning = .false.
/
 &NAMDIMO
   NMXOBS=120000,
   NDATAMX=2000000,
/

 &NAMTIME
  DSTEPOBS = 0.25D0

/
 &NAMFILT
  NLIST(1)=12062,
  NLIST(2)=12063,
  NLIST(3)=12163,
  RLIMLVHU   = 70.D0
/
 &NAMSTATE
   addHeightSfcOffset = .false.
   RHUMIN  = 1.0D-07
   ANLVAR(1)   ='UU'
   ANLVAR(2)   ='VV'
   ANLVAR(3)   ='TT'
   ANLVAR(4)   ='HU'
   ANLVAR(5)   ='P0'
   ANLVAR(6)   ='TG'
/
 &NAMTOV
   CSATID(1)        = 'GOES13',
   CINSTRUMENTID(1) = 'GOESIMAGER',
   CSATID(2)        = 'GOES15',
   CINSTRUMENTID(2) = 'GOESIMAGER',
   CSATID(3)        = 'MSG2',
   CINSTRUMENTID(3) = 'SEVIRI',
   CSATID(4)        = 'MSG3',
   CINSTRUMENTID(4) = 'SEVIRI',
   CSATID(5)        = 'HMWARI-8',
   CINSTRUMENTID(5) = 'AHI',
   CSATID(6)        = 'MSG1',
   CINSTRUMENTID(6) = 'SEVIRI',
   CSATID(7)        = 'MSG4',
   CINSTRUMENTID(7) = 'SEVIRI',
   CSATID(8)        = 'HMWARI-9',
   CINSTRUMENTID(8) = 'AHI',
   CSATID(9)        = 'GOES16',
   CINSTRUMENTID(9) = 'ABI',
   LDBGTOV    = .FALSE.,
   CRTMODL    = 'RTTOV',
   regLimitExtrap = .false.
/
 &NAMCODTYP
/
 &NAMGPSRO
/
 &NAMGPSGB
/
 &NAMADDTOBURP
  addBtClearToBurp=.true.,
  btClearElementId=12164,
  clwFgElementId=13109,
/
 &NAMBURP_FILTER_SFC
  BLISTELEMENTS_SF=10004,12004,10051,12203,11011,11012,13220
  BLISTELEMENTS_GP=10004,12004,12203,15031,15032,15035,13220
/
 &NAMBURP_FILTER_CONV
  BLISTELEMENTS=12001,11001,11002,12192,10194,15036,11011,11012,13210,13220
/
 &NAMBURP_FILTER_TOVS
  BLISTELEMENTS=12163,12164
/
 &NAMBURP_UPDATE
  BITEMLIST(1)='OMP',
  TYPE_RESUME='BGCKALT'
/
&NAMBIASSAT
    biasActive=.TRUE.,
    BG_STDDEV=2.d1, 2.d1, 2.d1, 2.d1, 2.d1, 2.d1
    biasmode="apply",
    removeBiasCorrection=.false.
    refreshBiasCorrection=.false.
    mimicsatbcor=.true.
    scanBiasCorLength=-1.d0
    centerPredictors=.false.,
    weightedEstimate=.false.,
    outstats=.false.,
    outcoeffcov=.false.,
    filterObs = .false.,
    cinst(1)="AMSUA"
    nbscan(1)=30
    cglobal(1)="DEF"
    cinst(2)="AMSUB"
    nbscan(2)=90
    cglobal(2)="DEF"
    cinst(3)="MHS"
    nbscan(3)=90
    cglobal(3)="DEF"
    cinst(4)="SSMIS"
    nbscan(4)=60
    cglobal(4)="NON"
    cinst(5)="AIRS"
    nbscan(5)=1
    cglobal(5)="NON"
    cinst(6)="IASI"
    nbscan(6)=1
    cglobal(6)="NON"
    cinst(7)="METS7"
    nbscan(7)=1
    cglobal(7)="OUI"
    cinst(8)="SEVIRI"
    nbscan(8)=1
    cglobal(8)="OUI"
    cinst(9)="MTSAT"
    nbscan(9)=1
    cglobal(9)="OUI"
    cinst(10)="CGOES"
    nbscan(10)=1
    cglobal(10)="OUI"
    cinst(11)="ATMS"
    nbscan(11)=96
    cglobal(11)="DEF"
    cinst(12)="CRIS"
    nbscan(12)=1
    cglobal(12)="NON"
    cinst(13)="CRISFSR"
    nbscan(13)=1
    cglobal(13)="NON"
    cinst(14)="AHI"
    nbscan(14)=1
    cglobal(14)="OUI"
    cinst(15)="ABI"
    nbscan(15)=1
    cglobal(15)="OUI"

/
 &NAMOER
  mwAllskyTtInflateByOmp = .true.,
  mwAllskyTtInflateByClwDiff = .true.,
/
 &NAMCSR
  burpSatName(1)  = '^GOES11',
  satCloudCoverLimit(1,:)         = 15*90,

  burpSatName(2)  = '^GOES13',
  satCloudCoverLimit(2,:)         = 15*90,

  burpSatName(3)  = '^GOES14',
  satCloudCoverLimit(3,:)         = 15*90,

  burpSatName(4)  = '^GOES15',
  satCloudCoverLimit(4,:)         = 15*90,

  burpSatName(5)  = '^METSAT8',
  satCloudCoverLimit(5,:)         = 15*5,

  burpSatName(6)  = '^METSAT9',
  satCloudCoverLimit(6,:)         = 15*5,

  burpSatName(7)  = '^METSAT10',
  satCloudCoverLimit(7,:)         = 15*5,

  burpSatName(8)  = '^METSAT11',
  satCloudCoverLimit(8,:)         = 15*5,

  burpSatName(9) = '^HMWARI-8',
  satCloudCoverLimit(9,:)        = 15*1,

  burpSatName(10) = '^HMWARI-9',
  satCloudCoverLimit(10,:)        = 15*1,

  burpSatName(11)  = '^GOES16',
  satCloudCoverLimit(11,:)         = 15*25,
/
