 &NAMCONF
   MODE   = 'TOOLBOX'
/
 &NAMSTATE
   CGNEED(1)   ='UU'
   CGNEED(2)   ='VV'
   CGNEED(3)   ='TT'
   CGNEED(4)   ='HU'
   CGNEED(5)   ='P0'
/
 &NAMENS
   NENS=128
   ENSFILEBASENAME='national_'
   IP2=6  
/
 &NAMCALCSTATS_LAM
   NTRUNC    = 250
   GRD_EXT_X = 196
   GRD_EXT_Y = 184
   WINDTRANSFORM = 'UV'
/
 &NAMTOOLBOX
   TOOL='LOCALIZATIONRADII'
/
 &NAMLOCALIZATIONRADII
   HLOC = .TRUE.
   VLOC = .FALSE.
   STRIDEFORHLOC=20
   STRIDEFORVLOC=1
/
