 &NAMCONF
   MODE   = 'BHI2'
/
 &NAMSTATE
   ANLVAR(1)   ='UU'
   ANLVAR(2)   ='VV'
   ANLVAR(3)   ='TT'
   ANLVAR(4)   ='HU'
   ANLVAR(5)   ='P0'
/
 &NAMENS
   NENS=176
   ENSFILEBASENAME='nmc_ensemble_'  
/
 &NAMCALCSTATS_GLB
   NTRUNC=180
/
