 &NAMCT0
   NCONF  = 121,
/
 &NAMBHI
   SCALEFACTOR   = 100*1.0D0
/
 &NAMBEN
   SCALEFACTOR   = 100*0.0D0
/
 &NAMMIN
   LVARQC=.FALSE.,
/
 &NAMDIMO
   NMXOBS=400000,
   NDATAMX=7000000,
/
 &NAMTIME
  DSTEPOBS = 0.25D0
/
 &NAMFILT
  NELEMS = 3,
  NLIST(1)=12062,
  NLIST(2)=12063,
  NLIST(3)=12163,
  NFLAGS=0,
  NLISTFLG(1)=4,
  NLISTFLG(2)=5,
  NLISTFLG(3)=9,
  NLISTFLG(4)=11,
  NLISTFLG(5)=12,
  NLISTFLG(6)=2,
  RLIMLVHU   = 70.D0
/
 &NAMRMAT
/
 &NAMPOST
  NPPCVAR    = 13,
  CPPCVAR(1) = 'UU',
  CPPCVAR(2) = 'VV',
  CPPCVAR(3) = 'TT',
  CPPCVAR(4) = 'LQ',
  CPPCVAR(5) = 'P0',
  CPPCVAR(6) = 'TG'
  CPPCVAR(7) = 'HU'
  CPPCVAR(8) = 'GZ'
  CPPCVAR(9) = 'ES'
  CPPCVAR(10)= 'QR'
  CPPCVAR(11)= 'DD'
  CPPCVAR(12)= 'VT'
  CPPCVAR(13)= 'QQ'
/
 &NAMSTATE
   CGNEED(1)   ='UU'
   CGNEED(2)   ='VV'
   CGNEED(3)   ='TT'
   CGNEED(4)   ='HU'
   CGNEED(5)   ='P0'
   CGNEED(6)   ='TG'
/
 &NAMSTATEO
   RHUMIN  = 1.0D-07
   CMVONEED(1)   ='UU'
   CMVONEED(2)   ='VV'
   CMVONEED(3)   ='TT'
   CMVONEED(4)   ='HU'
   CMVONEED(5)   ='ES'
   CMVONEED(6)   ='P0'
   CMVONEED(7)   ='TG'
/
 &NAMTOV
   NSENSORS         =  24,
   CSATID(1)        = 'NOAA15',
   CINSTRUMENTID(1) = 'AMSUA',
   CSATID(2)        = 'NOAA16',
   CINSTRUMENTID(2) = 'AMSUA',
   CSATID(3)        = 'NOAA15',
   CINSTRUMENTID(3) = 'AMSUB',
   CSATID(4)        = 'NOAA16',
   CINSTRUMENTID(4) = 'AMSUB',
   CSATID(5)        = 'AQUA',
   CINSTRUMENTID(5) = 'AMSUA',
   CSATID(6)        = 'NOAA18',
   CINSTRUMENTID(6) = 'AMSUA',
   CSATID(7)        = 'NOAA18',
   CINSTRUMENTID(7) = 'MHS',
   CSATID(8)        = 'METOP-2',
   CINSTRUMENTID(8) = 'AMSUA',
   CSATID(9)        = 'METOP-1',
   CINSTRUMENTID(9) = 'AMSUA',
   CSATID(10)       = 'METOP-2',
   CINSTRUMENTID(10)= 'MHS',
   CSATID(11)       = 'METOP-1',
   CINSTRUMENTID(11)= 'MHS',
   CSATID(12)       = 'NOAA19',
   CINSTRUMENTID(12)= 'AMSUA',
   CSATID(13)       = 'NOAA19',
   CINSTRUMENTID(13)= 'MHS',
   CSATID(14)       = 'NPP',
   CINSTRUMENTID(14)= 'ATMS',
   CSATID(15)       = 'DMSP16',
   CINSTRUMENTID(15)= 'SSMIS',
   CSATID(16)       = 'DMSP17',
   CINSTRUMENTID(16)= 'SSMIS',
   CSATID(17)       = 'DMSP18',
   CINSTRUMENTID(17)= 'SSMIS',
   CSATID(18)       = 'GOES13',
   CINSTRUMENTID(18)= 'GOESIMAGER',
   CSATID(19)       = 'GOES15',
   CINSTRUMENTID(19)= 'GOESIMAGER',
   CSATID(20)       = 'MSG2',
   CINSTRUMENTID(20)= 'SEVIRI',
   CSATID(21)       = 'MSG3',
   CINSTRUMENTID(21)= 'SEVIRI',
   CSATID(22)       = 'METEOSAT7',
   CINSTRUMENTID(22)= 'MVIRI',
   CSATID(23)       = 'MTSAT2',
   CINSTRUMENTID(23)= 'GMSMTSAT',
   CSATID(24)       = 'HMWARI-8',
   CINSTRUMENTID(24)= 'AHI',
   CSATID(25)       = 'MTSAT1',
   CINSTRUMENTID(25)= 'GMSMTSAT',
   LDBGTOV    = .FALSE.,
   CRTMODL   = 'RTTOV',
/
&NAMSAT
   LISTBURP(1)=054, ! METEOSAT 7
   LISTPLAT(1)=003,
   LISTSAT(1)=007,
   LISTBURP(2)=206, ! NOAA 15
   LISTPLAT(2)=001,
   LISTSAT(2)=015,
   LISTBURP(3)=207, ! NOAA 16
   LISTPLAT(3)=001,
   LISTSAT(3)=016,
   LISTBURP(4)=246, ! DMSP 13
   LISTPLAT(4)=002,
   LISTSAT(4)=013,
   LISTBURP(5)=247, ! DMSP 14
   LISTPLAT(5)=002,
   LISTSAT(5)=014,
   LISTBURP(6)=248, ! DMSP 15
   LISTPLAT(6)=002,
   LISTSAT(6)=015,
   LISTBURP(7)=249, ! DMSP 16
   LISTPLAT(7)=002,
   LISTSAT(7)=016,
   LISTBURP(8)=255, ! GOES 11
   LISTPLAT(8)=004,
   LISTSAT(8)=011,
   LISTBURP(9)=256, ! GOES 12
   LISTPLAT(9)=004,
   LISTSAT(9)=012,
   LISTBURP(10)=784,! AQUA (EOS 2)
   LISTPLAT(10)=009,
   LISTSAT(10)=002,
   LISTBURP(11)=208,! NOAA 17
   LISTPLAT(11)=001,
   LISTSAT(11)=017,
   LISTBURP(12)=209,! NOAA 18
   LISTPLAT(12)=001,
   LISTSAT(12)=018,
   LISTBURP(13)=003,! METOP-1 (METOP-B)
   LISTPLAT(13)=010,
   LISTSAT(13)=001,
   LISTBURP(14)=004,! METOP-2 (METOP-A)
   LISTPLAT(14)=010,
   LISTSAT(14)=002,
   LISTBURP(15)=005,! METOP-3 (METOP-C)
   LISTPLAT(15)=010,
   LISTSAT(15)=003,
   LISTBURP(16)=223,! NOAA 19
   LISTPLAT(16)=001,
   LISTSAT(16)=019,
   LISTBURP(17)=171,! MTSAT-1R
   LISTPLAT(17)=015,
   LISTSAT(17)=001,
   LISTBURP(18)=056,! METEOSAT 9 (MSG 2)
   LISTPLAT(18)=012,
   LISTSAT(18)=002,
   LISTBURP(19)=257,! GOES 13
   LISTPLAT(19)=004,
   LISTSAT(19)=013,
   LISTBURP(20)=285,! DMSP17
   LISTPLAT(20)=002,
   LISTSAT(20)=017,
   LISTBURP(21)=286,! DMSP18
   LISTPLAT(21)=002,
   LISTSAT(21)=018,
   LISTBURP(22)=224,! NPP
   LISTPLAT(22)=017,
   LISTSAT(22)=000,
   LISTBURP(23)=259,! GOES 15
   LISTPLAT(23)=004,
   LISTSAT(23)=015, 
   LISTBURP(24)=172,! MTSAT-2
   LISTPLAT(24)=015,
   LISTSAT(24)=002,
   LISTBURP(25)=258,! GOES 14
   LISTPLAT(25)=004,
   LISTSAT(25)=014,
   LISTBURP(26)=057,! METEOSAT 10
   LISTPLAT(26)=012,
   LISTSAT(26)=003,
   LISTBURP(27)=070,! METEOSAT 11
   LISTPLAT(27)=012,
   LISTSAT(27)=004,
   LISTBURP(28)=173,! HMWARI-8
   LISTPLAT(28)=031,
   LISTSAT(28)=008,
/
 &NAMBGCHK
/
 &NAMGPSRO
/
 &NAMGPSGB
/
 &NAMBURP_FILTER_SFC
  BNBITSOFF=0,
  BBITOFF(1)=2,
  BBITOFF(2)=4,
  BBITOFF(3)=5,
  BBITOFF(4)=-5,
  NELEMS_SFC=7,
  BLISTELEMENTS_SFC=10004,12004,10051,12203,11011,11012,13220
/
 &NAMBURP_FILTER_CONV
  BNBITSOFF=0,
  BBITOFF(1)=2,
  BBITOFF(2)=4,
  BBITOFF(3)=5,
  BBITOFF(4)=-5,
  BBITOFF(5)=-8,
  NELEMS=10,
  BLISTELEMENTS=12001,11001,11002,12192,10194,15036,11011,11012,13210,13220
/
 &NAMBURP_FILTER_TOVS
  BNBITSOFF=0,
  BBITOFF(1)=2,
  BBITOFF(2)=4,
  BBITOFF(3)=5,
  BBITOFF(4)=-5,
  BBITOFF(5)=-8,
  NELEMS=1
  BLISTELEMENTS=12163
/
 &NAMBURP_UPDATE
  BN_ITEMS=1,
  BITEMLIST(1)='OMP',
  BITEMLIST(2)='OMA',
  BITEMLIST(3)='FGE',
  TYPE_RESUME='DERIALT'
/
