 &NAMCT0
/
 &NCONF
/
 &NAMBHI
   NTRUNC  = 270,
   SCALEFACTOR   = 100*1.0D0
/
 &NAMBEN
   NTRUNC       = 31,
   NENS         = 16
   SCALEFACTOR  = 100*1.0D0
   ENSPATHNAME  ='./ensemble/'
   advectTypeAnlWindow = 'amplitude'
   advectStartTimeIndexAnlWindow = 'middle'
   advectFactorAnlWindow = 0.75D0
/
 &NAMSTATE
   ANLVAR(1)   ='UU'
   ANLVAR(2)   ='VV'
   ANLVAR(3)   ='TT'
   ANLVAR(4)   ='HU'
   ANLVAR(5)   ='P0'
   ANLVAR(6)   ='TG'
/
 &NAMTIME
  DSTEPOBS = 3.0d0
  DSTEPOBSINC = 3.0d0
/
