 &NAMCT0
/
 &NCONF
/
 &NAMBHI
   NTRUNC  = 270,
   SCALEFACTOR   = 100*1.0D0
/
 &NAMBEN
   NTRUNC       = 31,
   NENS         = 16
   SCALEFACTOR  = 100*1.0D0
   ENSPATHNAME  ='./ensemble/'
   !KEEPAMPLITUDE = .true.
/
 &NAMSTATE
   ANLVAR(1)   ='UU'
   ANLVAR(2)   ='VV'
   ANLVAR(3)   ='TT'
   ANLVAR(4)   ='HU'
   ANLVAR(5)   ='P0'
   ANLVAR(6)   ='TG'
/
 &NAMTIME
  DSTEPOBS = 6.0d0
  DSTEPOBSINC = 6.0d0
/
