 &NAMTIME
  DSTEPOBS    = 48.0d0
  DSTEPOBSINC = 48.0d0
  DWINDOWSIZE = 48.0d0
/
 &NAMSTATE
  ANLVAR(1) = 'TM'
/
 &NAMDIMO
   NMXOBS=1500000,
   NDATAMX=1500000
/
 &NAMFILT
  NLIST(1)=22042,
  NLISTFLG(1)=2
  NLISTFLG(2)=3
  NLISTFLG(3)=4
  NLISTFLG(4)=10
  NLISTFLG(5)=11
  NLISTFLG(6)=12
/
 &NAMBDIFF
/
 &NAMBHI
/
 &NAMBEN
/
 &NAMSQLsst
  listElem='22042'
  sqlNull=' and obsvalue is not null '
  sqlExtraDat_sat=' and id_obs in (select id_obs from header where id_stn in ("METO-A","METO-B","NOAA19","N20","NPP","AMSR2")) '
  sqlExtraHeader_sat=' id_stn in ("METO-A","METO-B","NOAA19","N20","NPP","AMSR2") '
/
 &namSSTObsErrors
   !#                     dataType ,    instrument ,   sensor ,  sensorType , codetype , dayError , nightError
   SSTdataParams(1)  =    'insitu' ,     'drifter' ,       '' ,          '' ,       18 ,     0.36 ,       0.36
   SSTdataParams(2)  =    'insitu' ,        'ship' ,       '' ,          '' ,       13 ,     0.64 ,       0.64
   SSTdataParams(3)  =    'insitu' , 'moored buoy' ,       '' ,          '' ,      147 ,     0.49 ,       0.49
   SSTdataParams(4)  = 'satellite' ,       'AVHRR' , 'NOAA19' ,  'infrared' ,       88 ,     0.80 ,       0.49
   SSTdataParams(5)  = 'satellite' ,       'AVHRR' , 'METO-A' ,  'infrared' ,       88 ,     0.80 ,       0.49
   SSTdataParams(6)  = 'satellite' ,       'AVHRR' , 'METO-B' ,  'infrared' ,       88 ,     0.80 ,       0.49
   SSTdataParams(7)  = 'satellite' ,       'AVHRR' , 'METO-C' ,  'infrared' ,       88 ,     0.80 ,       0.49
   SSTdataParams(8)  = 'satellite' ,       'VIIRS' ,    'N20' ,  'infrared' ,       88 ,     0.80 ,       0.49
   SSTdataParams(9)  = 'satellite' ,       'VIIRS' ,    'NPP' ,  'infrared' ,       88 ,     0.80 ,       0.49
   SSTdataParams(10) = 'satellite' ,       'AMSR2' ,  'AMSR2' , 'microwave' ,       88 ,     0.80 ,       0.80
   SSTdataParams(11) =    'pseudo' ,       'Bogus' ,       '' ,          '' ,      150 ,     1.00 ,       1.00
/
 &namSQLUpdate
  itemUpdateList(1)='OMP'
  itemUpdateList(2)='OMA'
  itemUpdateList(3)='OER'
  itemUpdateList(4)='FGE'
/
 &namSQLInsert
/
 &NAMMIN
/
 &NAMCODTYP
/
 &NAMAER
   maxAnalysisErrorStdDev = 2.5
   propagateAnalysisError = .true.
   propagateDSLO = .false.
   errorGrowth = 0.01
   analysisEtiket = 'ANALYSIS'
   analErrorStdEtiket = 'A-ER STD DEV'
   bckgErrorStdEtiket = 'B-ER STD DEV'
   hoursSinceLastAnalysis = 24
   saveTrlStdField = .true.
/
