 &namObsSelection
   doThinning = .true.
/
 &thin_aircraft
   deltmax = 90
/
 &thin_gbgps
   deltemps = 8
   deldist = 50
/
 &thin_gpsro
   heightMin     = 0.0d0
   heightMax     = 40000.0d0
   heightSpacing = 830.0d0
/
 &thin_satwind
   deltemps = 6
   deldist = 200
/
 &thin_scat
   deltax = 100
   deltmax = 90
/
 &NAMBHI
   SCALEFACTOR   = 100*1.0D0
/
 &NAMBEN
   SCALEFACTOR   = 100*0.0D0
/
 &NAMMIN
   LVARQC=.FALSE.,
/
 &NAMSTATE
   addHeightSfcOffset = .false.
   RHUMIN  = 1.0D-07
   ANLVAR(1)   ='UU'
   ANLVAR(2)   ='VV'
   ANLVAR(3)   ='TT'
   ANLVAR(4)   ='HU'
   ANLVAR(5)   ='P0'
   ANLVAR(6)   ='TG'
/
 &NAMRMAT
/
 &NAMTIME
  DSTEPOBS = 0.25D0
/
 &NAMFILT
   NLIST(1)=11003,
   NLIST(2)=11004,
   NLIST(3)=12192,
   NLIST(4)=10192,
   NLIST(5)=10194,
   NLIST(6)=12001,
   NLIST(7)=10004,
   NLIST(8)=10051,
   NLIST(9)=12004,
   NLIST(10)=11215,
   NLIST(11)=11216,
   NLIST(12)=12203,
   NLIST(13)=12163,
   NLIST(14)=15036,
   NLIST(15)=15031,
   NLIST(16)=40030,
   NLISTFLG(1)=0,
   NLISTFLG(2)=-1,
   NLISTFLG(3)=-2,
   NLISTFLG(4)=-3,
   NLISTFLG(5)=-4,
   NLISTFLG(6)=-5,
   NLISTFLG(7)=-6,
   NLISTFLG(8)=-7,
   RLIMLVHU=70.,
/
 &NAMDIMO
   NMXOBS=200000,
   NDATAMX=2000000,
/
&NAMGEM
  rprefinc= 80000.0
  rptopinc= 10.0
  rcoefinc= 1.6     
  vlev(01)= 0.125E-03
  vlev(02)= 0.221E-03
  vlev(03)= 0.382E-03
  vlev(04)= 0.635E-03
  vlev(05)= 0.101E-02
  vlev(06)= 0.153E-02
  vlev(07)= 0.224E-02
  vlev(08)= 0.317E-02
  vlev(09)= 0.433E-02
  vlev(10)= 0.577E-02
  vlev(11)= 0.750E-02
  vlev(12)= 0.955E-02
  vlev(13)= 0.119E-01
  vlev(14)= 0.146E-01
  vlev(15)= 0.177E-01
  vlev(16)= 0.210E-01
  vlev(17)= 0.247E-01
  vlev(18)= 0.287E-01
  vlev(19)= 0.330E-01
  vlev(20)= 0.375E-01
  vlev(21)= 0.422E-01
  vlev(22)= 0.472E-01
  vlev(23)= 0.524E-01
  vlev(24)= 0.576E-01
  vlev(25)= 0.630E-01
  vlev(26)= 0.684E-01
  vlev(27)= 0.738E-01
  vlev(28)= 0.791E-01
  vlev(29)= 0.843E-01
  vlev(30)= 0.893E-01
  vlev(31)= 0.942E-01
  vlev(32)= 0.988E-01
  vlev(33)= 0.103E+00
  vlev(34)= 0.108E+00
  vlev(35)= 0.113E+00
  vlev(36)= 0.119E+00
  vlev(37)= 0.126E+00
  vlev(38)= 0.134E+00
  vlev(39)= 0.142E+00
  vlev(40)= 0.152E+00
  vlev(41)= 0.163E+00
  vlev(42)= 0.175E+00
  vlev(43)= 0.189E+00
  vlev(44)= 0.206E+00
  vlev(45)= 0.223E+00
  vlev(46)= 0.241E+00
  vlev(47)= 0.260E+00
  vlev(48)= 0.279E+00
  vlev(49)= 0.300E+00
  vlev(50)= 0.321E+00
  vlev(51)= 0.344E+00
  vlev(52)= 0.367E+00
  vlev(53)= 0.390E+00
  vlev(54)= 0.415E+00
  vlev(55)= 0.440E+00
  vlev(56)= 0.467E+00
  vlev(57)= 0.493E+00
  vlev(58)= 0.521E+00
  vlev(59)= 0.549E+00
  vlev(60)= 0.578E+00
  vlev(61)= 0.607E+00
  vlev(62)= 0.637E+00
  vlev(63)= 0.668E+00
  vlev(64)= 0.699E+00
  vlev(65)= 0.730E+00
  vlev(66)= 0.759E+00
  vlev(67)= 0.787E+00
  vlev(68)= 0.812E+00
  vlev(69)= 0.836E+00
  vlev(70)= 0.859E+00
  vlev(71)= 0.879E+00
  vlev(72)= 0.898E+00
  vlev(73)= 0.916E+00
  vlev(74)= 0.932E+00
  vlev(75)= 0.947E+00
  vlev(76)= 0.961E+00
  vlev(77)= 0.974E+00
  vlev(78)= 0.985E+00
  vlev(79)= 0.995E+00
  vlev(80)= 0.100E+01
/
 &NAMGPSRO
  SURFMIN  = 1000.D0,
  HSFMIN   = 1000.D0,
  HTPMAX   = 70000.D0,
  BGCKBAND = 0.05D0,
  gpsroError = 'DYNAMIC',
/
 &NAMGPSGB
   DZMIN      = 2.0D0,
   DZMAX      = 1000.0D0,
   YZTDERR    = 0.0D0,
   LASSMET    = .TRUE.,
   LLBLMET    = .FALSE.,
   YSFERRWGT  = 1.00D0,
   YZDERRWGT  = 1.00D0,
   LBEVIS     = .TRUE.,
   IREFOPT    = 1,
   L1OBS      = .FALSE.,
   LTESTOP    = .FALSE.,
   IZTDOP     = 1,
/
 &NAMCODTYP
/
 &NAMBURP_FILTER_SFC
  BLISTELEMENTS_SFC=10004,12004,10051,12203,11011,11012,13220,15031,15032,15035
  LISTE_ELE_GPS=10004,12004,12203,15031,15032,15035,40026
/
 &NAMBURP_FILTER_CONV
  UA_HIGH_PRECISION_TT_ES=.true.,
  READ_QI_GA_MT_SW=.true.,
  BLISTELEMENTS=12001,11001,11002,12192,10194,15036,11011,11012,13210,13220
/
 &NAMBURP_FILTER_TOVS
  BLISTELEMENTS=12163
/
 &NAMPHY
  saturationCurve='Tetens_2018a'
/
 &NAMOER
  NEW_OER_SW=.true.
/
 &NAMBGCKCONV
  NEW_BGCK_SW=.true.
/
 &NAMBURP_UPDATE
  BITEMLIST(1)='OMP',
  BITEMLIST(2)='OER',
  TYPE_RESUME='BGCKALT'
/
