 &NAMBHI
  NTRUNC = 180
/
 &NAMBEN
/
 &NAMENKF
   NENS=128
   SEED=1
   DATE=2014070112
   REMOVE_MEAN=T
   WRITE_MPI=F
/
 &NAMTIME
  DSTEPOBS = 6.0d0
  DSTEPOBSINC = 6.0d0
/
 &NAMSTATE
   ANLVAR(1)   ='UU'
   ANLVAR(2)   ='VV'
   ANLVAR(3)   ='TT'
   ANLVAR(4)   ='HU'
   ANLVAR(5)   ='P0'
   ANLVAR(6)   ='TG'
/


