 &NAMDIAG
   DIAGDATE = 2014010100
   !NUMPERTURBATIONS = 30
   ONEOBS_LEVS = 60,
   ONEOBS_LONS = 401,
   ONEOBS_LATS = 200,250,300,350
/
 &NAMBHI
   NTRUNC  = 270
/
 &NAMBEN
/
 &NAMSTATE
   ANLVAR(1)   ='UU'
   ANLVAR(2)   ='VV'
   ANLVAR(3)   ='TT'
   ANLVAR(4)   ='HU'
   ANLVAR(5)   ='P0'
/
 &NAMTIME
  DSTEPOBS = 6.0d0
  DSTEPOBSINC = 6.0d0
/
