 &NAMBHI
  SCALEFACTOR = 200*0.0d0
/
 &NAMBEN
  NENS = 36
  SCALEFACTOR = 32*1.0d0,0.8d0,0.6d0,0.4d0,0.2d0,20*0.0d0
  HLOCALIZE = 1000.0D0
  VLOCALIZE = 1000.0D0
  ensContainsFullField = .false.
/
 &NAMENKF
   NENS=10
   SEED=1
   DATE=-1
   REMOVE_MEAN=T
   MPITOPOINDEPENDENT = .true.
/
 &NAMTIME
  DSTEPOBS = 6.0d0
  DSTEPOBSINC = 6.0d0
/
 &NAMSTATE
   ANLVAR(1)   ='TM'
   ANLVAR(2)   ='SALW'
   ANLVAR(3)   ='SSH'
   ANLVAR(4)   ='GL'
/
