 &NAMCT0
/
 &NAMENSMANIP
   OUTPUT_MEAN = T
   NENS = 24
   DATE = 2016112300
/
 &NAMTIME
  DSTEPOBSINC = 1.0d0
/
 &NAMSTATE
   ANLVAR(1)   ='UU'
   ANLVAR(2)   ='VV'
   ANLVAR(3)   ='TT'
   ANLVAR(4)   ='HU'
   ANLVAR(5)   ='P0'
   ANLVAR(6)   ='TG'
/


