 &NAMCT0
   NCONF  = 141,
/
 &NAMBHI
   SCALEFACTOR = 200*0.0
/
 &NAMBLB
   SCALEFACTOR = 200*0.0
/
 &NAMBCHM
   NTRUNC  = 399
   NUMMODEZERO = 20
/
 &NAMBEN
/
 &NAMRMAT
/
 &NAMMIN
   NVAMAJ = 30,
   NITERMAX = 20,
   NSIMMAX  = 100,
   REPSG    = 1.0D-5,
   LGRTEST  = .FALSE.,
   LWRTHESS = .TRUE.,
   LVARQC=.TRUE.,
   NWOQCV=5
/
 &NAMINC
   etiket_rebm ='XXXXXX'
/
 &NAMDIMO
   NMXOBS=500000,
   NDATAMX=30000000,
/
 &NAMTIME
  DSTEPOBS = 0.75d0
  DSTEPOBSINC = 6.0d0
/
 &NAMFILT
  NELEMS = 4,
  NLIST(1)=15198,
  NLIST(2)=15199,
  NLIST(3)=15008,
  NLIST(4)=15208,
  NFLAGS=6,
  NLISTFLG(1)=2,
  NLISTFLG(2)=4,
  NLISTFLG(3)=5,
  NLISTFLG(4)=11,
  NLISTFLG(5)=-5,
  NLISTFLG(6)=-8,
  list_topoFilt(1) = 'CH'
  RLIMLVHU=70.,
/
 &NAMSTATE
   RHUMIN    = 1.0D-07
   ANLVAR(1) = 'TT'
   ANLVAR(2) = 'HU'
   ANLVAR(3) = 'P0'
   ANLVAR(4) = 'TO3'
/
 &NAMTOV
/
 &NAMSAT
/
 &NAMINST
/
 &NAMCHANOFFSET
/
 &NAMTOVSINST
   inst_names(1)='airs',
   inst_names(2)='iasi',
   inst_names(3)='cris',
/
 &NAMHYPER
/
 &NAMGEO
/
 &NAMCODTYP
   cnames(1)='CHEMREMOTE',
   icod(1)=195, 
   cnames(2)='CHEMINSITU',
   icod(2)=196,
   cnames(3)='AIRS'
   icod(3)=183
   cnames(4)='IASI'
   icod(4)=186
   cnames(5)='CRIS'
   icod(5)=193
/
 &NAMBGCKIR
/
 &NAMGPSRO
  GPSRODYNERROR = .FALSE.
/
 &NAMGPSGB
/
 &NAMBURP_FILTER_SFC
/
 &NAMBURP_FILTER_CONV
/
 &NAMBURP_FILTER_TOVS
/
&NAMBURP_FILTER_CHM_SFC
  BNBITSOFF=0,
  NELEMS_SFC=3,
  BLISTELEMENTS_SFC=15198,15208,8090 
/
&NAMBURP_FILTER_CHM
  BNBITSOFF=0,
  NELEMS=5,
  BLISTELEMENTS=15198,15199,15008,15208,8090 
/
 &NAMBURP_UPDATE
  BN_ITEMS=3,
  BITEMLIST(1)='OMA',
  BITEMLIST(2)='OMP',
  BITEMLIST(3)='OER',
  BITEMLIST(4)='FGE',
  TYPE_RESUME='POSTALT'
/
 &NAMaai_control
   s_log_concentration_nomvars='TO3'
   !s_nomvars='TO3'
   l_writeHighResDelxa=.true.,
   n_nbits=16,
   l_useAnalyzedPSurf = .true.,
   l_huIncFromLq=.false.,
   l_icePhaseEs=.false.
   s_horizInterpTypeToHigh='linear'
   s_horizInterpTypeToLow='linear'
 /
 &NAMSHARED_AAI_3DV
   CVCORD='GEMHYB'
/
 &NAMOSD
   NRANDSEED=999
   LRANDOM=.true.
   DELTALAT=30.0D0
   DELTALON=360.0D0
   DELTAPRESSURE=20000.0D0
   DELTAHEIGHT=5000.0D0
   NUMFAMILY=1
   FAMILYLIST(1)='CH'
   NUMELEMENT=3
   ELEMENTLIST(1)=15198
   ELEMENTLIST(2)=15199
   ELEMENTLIST(3)=15208
   diagn_all(1)=.true.
   diagn_save(1)=.true.
   diagn_nset(1)=2
   diagn_num(1)=1
   diagn_stnid(1,1)='WO*****00'
   diagn_varno(1,1)=15199
   diagn_unilev(1,1)=.false.
/
 &NAMCHEM
   assim_all(1)=.false.
   assim_num(1)=3
   assim_stnid(1,1)='00422000'
   assim_stnid(1,2)='00322000'
   assim_stnid(1,3)='00038700'
/
