 &NAMCT0
   NCONF  = 121,
/
 &NAMOMF
   ADDSIGMAO = .FALSE.
   ADDHBHT   = .FALSE.
/
 &NAMS2C
   SLANTPATH_TO_NL   = .FALSE.,
   SLANTPATH_TO_TLAD = .FALSE.,
   SLANTPATH_RO_NL   = .FALSE.,
   SLANTPATH_RA_NL   = .TRUE.,
   calcHeightPressIncrOnColumn = .FALSE.,
/
 &NAMRADVEL 
   maxRangeInterp = 15000.0D0,
/
 &NAMDIMO
   NMXOBS=400000,
   NDATAMX=7000000,
/
 &NAMTIME
  DSTEPOBS = 6.0D0
  DWINDOWSIZE = 6.0D0
/
 &NAMFILT
  NLIST(1)=21014,
  RLIMLVHU   = 70.D0
/
 &NAMRMAT
/
 &NAMSTATE
   addHeightSfcOffset = .FALSE.
   RHUMIN  = 1.0D-07
   ANLVAR(1)   ='UU'
   ANLVAR(2)   ='VV'
   ANLVAR(3)   ='TT'
   ANLVAR(4)   ='HU'
   ANLVAR(5)   ='P0'
   ANLVAR(6)   ='TG'
/
 &NAMTOV
   CSATID(1)        = 'NOAA15',
   CINSTRUMENTID(1) = 'AMSUA',
   CSATID(2)        = 'NOAA16',
   CINSTRUMENTID(2) = 'AMSUA',
   CSATID(3)        = 'NOAA15',
   CINSTRUMENTID(3) = 'AMSUB',
   CSATID(4)        = 'NOAA16',
   CINSTRUMENTID(4) = 'AMSUB',
   CSATID(5)        = 'AQUA',
   CINSTRUMENTID(5) = 'AMSUA',
   CSATID(6)        = 'NOAA18',
   CINSTRUMENTID(6) = 'AMSUA',
   CSATID(7)        = 'NOAA18',
   CINSTRUMENTID(7) = 'MHS',
   CSATID(8)        = 'METOP-2',
   CINSTRUMENTID(8) = 'AMSUA',
   CSATID(9)        = 'METOP-1',
   CINSTRUMENTID(9) = 'AMSUA',
   CSATID(10)       = 'METOP-2',
   CINSTRUMENTID(10)= 'MHS',
   CSATID(11)       = 'METOP-1',
   CINSTRUMENTID(11)= 'MHS',
   CSATID(12)       = 'NOAA19',
   CINSTRUMENTID(12)= 'AMSUA',
   CSATID(13)       = 'NOAA19',
   CINSTRUMENTID(13)= 'MHS',
   CSATID(14)       = 'NPP',
   CINSTRUMENTID(14)= 'ATMS',
   CSATID(15)       = 'DMSP16',
   CINSTRUMENTID(15)= 'SSMIS',
   CSATID(16)       = 'DMSP17',
   CINSTRUMENTID(16)= 'SSMIS',
   CSATID(17)       = 'DMSP18',
   CINSTRUMENTID(17)= 'SSMIS',
   CSATID(18)       = 'GOES13',
   CINSTRUMENTID(18)= 'GOESIMAGER',
   CSATID(19)       = 'GOES15',
   CINSTRUMENTID(19)= 'GOESIMAGER',
   CSATID(20)       = 'MSG2',
   CINSTRUMENTID(20)= 'SEVIRI',
   CSATID(21)       = 'MSG3',
   CINSTRUMENTID(21)= 'SEVIRI',
   CSATID(22)       = 'METEOSAT7',
   CINSTRUMENTID(22)= 'MVIRI',
   CSATID(23)       = 'MTSAT2',
   CINSTRUMENTID(23)= 'GMSMTSAT',
   CSATID(24)       = 'HMWARI-8',
   CINSTRUMENTID(24)= 'AHI',
   CSATID(25)       = 'MTSAT1',
   CINSTRUMENTID(25)= 'GMSMTSAT',
   LDBGTOV    = .FALSE.,
   CRTMODL    = 'RTTOV',
/
 &NAMCODTYP
/
 &NAMGPSRO
/
 &NAMGPSGB
/
 &NAMBURP_FILTER_SFC
  BLISTELEMENTS_SFC=10004,12004,10051,12203,11011,11012,13220,15031,15032,15035
/
 &NAMBURP_FILTER_CONV
  BLISTELEMENTS=12001,11001,11002,12192,10194,15036,11011,11012,13210,13220
/
 &NAMBURP_FILTER_TOVS
  BLISTELEMENTS=12163
/
 &NAMBURP_UPDATE
  BITEMLIST(1)='OMP',
  TYPE_RESUME='DERIALT'
 &namSQLInsert
  itemInsertList(1)=11215
  itemInsertList(2)=11216
  itemInsertList(3)=11003
  itemInsertList(4)=11004

/
 &namSQLUpdate
 itemUpdateList(1)='OMP'
 itemUpdateList(2)='OMA'
 itemUpdateListRadar(1)='ALT'
/
 &NAMSQLamsua
/
 &NAMSQLamsub
/
 &NAMSQLssmi
/
 &NAMSQLatms
/
 &NAMSQLcsr
/
 &NAMSQLairs
/
 &NAMSQLai
  listElem="12001,11001,11002,12192"
  sqlNull=" and obsvalue is not null and vcoord is not null "
/
 &NAMSQLcris
/
 &NAMSQLgp
/
 &NAMSQLiasi
/
 &NAMSQLro
  listElem="15036,15037"
  sqlNull=" and obsvalue is not null and vcoord is not null "
/
 &NAMSQLsc
   listElem="11011,11012"
   sqlNull = " and obsvalue is not null "
/
 &NAMSQLsfc
   listElem="22042"
   sqlNull=" and obsvalue is not null "  
/
 &NAMSQLsw
  listElem="11001,11002"
  sqlNull=" and obsvalue is not null and vcoord is not null "
/
 &NAMSQLua
  listElem="12004,12203,10051,10004,11011,11012,12001,11001,11002,12192,10194"
  sqlNull=" and obsvalue is not null " 
/
 &NAMSQLpr
  listElem="11001,11002"
  sqlNull=" and obsvalue is not null and vcoord is not null "
/
 &NAMSQLradvel
  listElem="21014"
  sqlNull=" and obsvalue is not null "
/
