 &NAMCT0
/
 &NAMENSMANIP
   alternativeEnsembleMean = '_enkfmean'
   ENSPATHNAME = '.'
   ensembleTypvarOutput = 'A'
   ensembleEtiketOutput = '1234'
   ensembleEtiketOutputAppendMemberNumber = T
   shiftEnsembleControlMember = T
   ensembleControlMemberEtiket = 'E2AVGANPALL'
   NENS = 4
   RECENTER = T
   RECENTERING_COEFF = 1.0
/
 &NAMTIME
  DSTEPOBSINC = 6.0d0
/
 &NAMSTATE
   ANLVAR(1)   ='UU'
   ANLVAR(2)   ='VV'
   ANLVAR(3)   ='TT'
   ANLVAR(4)   ='HU'
   ANLVAR(5)   ='P0'
/
