 &namObsSelection
   doThinning = .true.
/
 &NAMDIMO
   NMXOBS=10000,
   NDATAMX=6000000,
/
 &THIN_HYPER
   removeUnCorrected = .true.
   deltmax = 22
   deltax  = 150
   deltrad = 45
/
 &NAMTIME
  DSTEPOBS = 0.25D0
/
 &NAMFILT
  NELEMS = 3,
  NLIST(1)=12062,
  NLIST(2)=12063,
  NLIST(3)=12163,
  NFLAGS=5,
  NLISTFLG(1)=4,
  NLISTFLG(2)=5,
  NLISTFLG(3)=9,
  NLISTFLG(4)=12,
  NLISTFLG(5)=-5,
  NLISTFLG(6)=2,
  list_topoFilt(1) = '  '
  RLIMLVHU   = 70.D0
/
 &NAMRMAT
/
 &NAMSTATE
   addHeightSfcOffset = .false.
   RHUMIN  = 1.0D-07
   ANLVAR(1)   ='UU'
   ANLVAR(2)   ='VV'
   ANLVAR(3)   ='TT'
   ANLVAR(4)   ='HU'
   ANLVAR(5)   ='P0'
   ANLVAR(6)   ='TG'
/
 &NAMTOV
   NSENSORS         =  2,
   CSATID(1)        = 'METOP-2',
   CINSTRUMENTID(1) = 'IASI',
   CSATID(2)        = 'METOP-1',
   CINSTRUMENTID(2) = 'IASI',
   LDBGTOV    = .FALSE.,
   CRTMODL    = 'RTTOV',
   regLimitExtrap=.false.
/
 &NAMSAT
   LISTBURP(1)=054, ! METEOSAT 7
   LISTPLAT(1)="meteosat",
   LISTSAT(1)=007
   LISTBURP(2)=206, ! NOAA 15
   LISTPLAT(2)="noaa",
   LISTSAT(2)=015,
   LISTBURP(3)=207, ! NOAA 16
   LISTPLAT(3)="noaa",
   LISTSAT(3)=016,
   LISTBURP(4)=246, ! DMSP 13
   LISTPLAT(4)="dmsp",
   LISTSAT(4)=013,
   LISTBURP(5)=247, ! DMSP 14
   LISTPLAT(5)="dmsp",
   LISTSAT(5)=014,
   LISTBURP(6)=248, ! DMSP 15
   LISTPLAT(6)="dmsp",
   LISTSAT(6)=015,
   LISTBURP(7)=249, ! DMSP 16
   LISTPLAT(7)="dmsp",
   LISTSAT(7)=016,
   LISTBURP(8)=255, ! GOES 11
   LISTPLAT(8)="goes",
   LISTSAT(8)=011,
   LISTBURP(9)=256, ! GOES 12
   LISTPLAT(9)="goes",
   LISTSAT(9)=012,
   LISTBURP(10)=784,! AQUA (EOS 2)
   LISTPLAT(10)="eos",
   LISTSAT(10)=002,
   LISTBURP(11)=208,! NOAA 17
   LISTPLAT(11)="noaa",
   LISTSAT(11)=017,
   LISTBURP(12)=209,! NOAA 18
   LISTPLAT(12)="noaa",
   LISTSAT(12)=018,
   LISTBURP(13)=003,! METOP-1 (METOP-B)
   LISTPLAT(13)="metop",
   LISTSAT(13)=001,
   LISTBURP(14)=004,! METOP-2 (METOP-A)
   LISTPLAT(14)="metop",
   LISTSAT(14)=002,
   LISTBURP(15)=005,! METOP-3 (METOP-C)
   LISTPLAT(15)="metop",
   LISTSAT(15)=003,
   LISTBURP(16)=223,! NOAA 19
   LISTPLAT(16)="noaa",
   LISTSAT(16)=019,
   LISTBURP(17)=171,! MTSAT-1R
   LISTPLAT(17)="mtsat-1r",
   LISTSAT(17)=001,
   LISTBURP(18)=056,! METEOSAT 9 (MSG 2)
   LISTPLAT(18)="msg",
   LISTSAT(18)=002,
   LISTBURP(19)=257,! GOES 13
   LISTPLAT(19)="goes",
   LISTSAT(19)=013,
   LISTBURP(20)=285,! DMSP17
   LISTPLAT(20)="dmsp",
   LISTSAT(20)=017,
   LISTBURP(21)=286,! DMSP18
   LISTPLAT(21)="dmsp",
   LISTSAT(21)=018,
   LISTBURP(22)=224,! NPP
   LISTPLAT(22)="jpss",
   LISTSAT(22)=000,
   LISTBURP(23)=259,! GOES 15
   LISTPLAT(23)="goes",
   LISTSAT(23)=015, 
   LISTBURP(24)=172,! MTSAT-2
   LISTPLAT(24)="mtsat",
   LISTSAT(24)=002,
   LISTBURP(25)=258,! GOES 14
   LISTPLAT(25)="goes",
   LISTSAT(25)=014,
   LISTBURP(26)=057,! METEOSAT 10 alias MSG 3
   LISTPLAT(26)="msg",
   LISTSAT(26)=003,
   LISTBURP(27)=070,! METEOSAT 11 alias MSG 4
   LISTPLAT(27)="msg",
   LISTSAT(27)=004,
   LISTBURP(28)=173,! HMWARI-8
   LISTPLAT(28)="hmwari",
   LISTSAT(28)=008,
   LISTBURP(29)=055,! METEOSAT 8
   LISTPLAT(29)="msg",
   LISTSAT(29)=001,
   LISTBURP(30)=174,! HMWARI-9
   LISTPLAT(30)="hmwari",
   LISTSAT(30)=009,
   LISTBURP(31)=270,! GOES 16
   LISTPLAT(31)="goes",
   LISTSAT(31)=016,
   LISTBURP(32)=225,! NOAA 20
   LISTPLAT(32)="noaa",
   LISTSAT(32)=020,
/
 &NAMBGCHK
/
 &NAMINST
   LISTBURP(1)=050
   LISTINSTRUM(1)="atsr",
   LISTBURP(2)=203,
   LISTINSTRUM(2)="mhs",
   LISTBURP(3)=205,
   LISTINSTRUM(3)="mviri",
   LISTBURP(4)=207, 
   LISTINSTRUM(4)="seviri",
   LISTBURP(5)=221, 
   LISTINSTRUM(5)="iasi",
   LISTBURP(6)=295,
   LISTINSTRUM(6)="gmsim",
   LISTBURP(7)=296, 
   LISTINSTRUM(7)="gmsim",
   LISTBURP(8)=365, 
   LISTINSTRUM(8)="tmi",
   LISTBURP(9)=389, 
   LISTINSTRUM(9)="modis",
   LISTBURP(10)=420,
   LISTINSTRUM(10)="airs",
   LISTBURP(11)=570,
   LISTINSTRUM(11)="amsua",
   LISTBURP(12)=571,
   LISTINSTRUM(12)="amsua",
   LISTBURP(13)=572,
   LISTINSTRUM(13)="amsua",
   LISTBURP(14)=573,
   LISTINSTRUM(14)="amsua",
   LISTBURP(15)=574,
   LISTINSTRUM(15)="amsub",
   LISTBURP(16)=590,
   LISTINSTRUM(16)="avhrr",
   LISTBURP(17)=591,
   LISTINSTRUM(17)="avhrr",
   LISTBURP(18)=592,
   LISTINSTRUM(18)="avhrr",
   LISTBURP(19)=605,
   LISTINSTRUM(19)="hirs",
   LISTBURP(20)=606,
   LISTINSTRUM(20)="hirs",
   LISTBURP(21)=607,
   LISTINSTRUM(21)="hirs",
   LISTBURP(22)=615,
   LISTINSTRUM(22)="goesim",
   LISTBURP(23)=620,
   LISTINSTRUM(23)="cris",
   LISTBURP(24)=621,
   LISTINSTRUM(24)="atms",
   LISTBURP(25)=626,
   LISTINSTRUM(25)="goessd",
   LISTBURP(26)=623,
   LISTINSTRUM(26)="msu",
   LISTBURP(27)=627,
   LISTINSTRUM(27)="ssu",
   LISTBURP(28)=905,	
   LISTINSTRUM(28)="ssmi",
   LISTBURP(29)=908,
   LISTINSTRUM(29)="ssmis",
   LISTBURP(30)=2047,
   LISTINSTRUM(30)="airs",
   LISTBURP(31)=297,
   LISTINSTRUM(31)="ahi",
   LISTBURP(32)=617,
   LISTINSTRUM(32)="abi",
   LISTBURP(33)=2046,
   LISTINSTRUM(33)="cris-fsr",
/ 
 &NAMCHANOFFSET
   LISTOFFSET(1)=27,
   LISTINSTRUM(1)="amsua",
   LISTOFFSET(2)=42,
   LISTINSTRUM(2)="amsub",
   LISTOFFSET(3)=42,
   LISTINSTRUM(3)="mhs",   
   LISTOFFSET(4)=3,
   LISTINSTRUM(4)="seviri",   
   LISTOFFSET(5)=18,
   LISTINSTRUM(5)="goesim",   
/
 &NAMTOVSINST
   inst_names(1)='amsua',
   inst_names(2)='amsub',
   inst_names(3)='mhs',
   inst_names(4)='ssmis',
   inst_names(5)='atms',
   inst_names(6)='airs',
   inst_names(7)='iasi',
   inst_names(8)='cris',
   inst_names(9)='radianceclear',
   inst_names(10)='cris-fsr',
/
 &NAMHYPER
   name_inst(1)='airs',
   name_inst(2)='iasi',
   name_inst(3)='cris',
   name_inst(4)='cris-fsr',
/
 &NAMGEO
   name_inst(1)='goesim',
   name_inst(2)='ahi',
   name_inst(3)='mviri',
   name_inst(4)='seviri',
   name_inst(5)='gmsim',
   name_inst(6)='abi',
/
 &NAMGEOBUFR
   name_inst(1)='cgoes',
   name_inst(2)='ahi',
   name_inst(3)='mviri',
   name_inst(4)='seviri',
   name_inst(5)='gmsim',
   name_inst(6)='abi',
/
 &NAMCODTYP
/
 &NAMBGCKIR
   NINST=4,
   INST(1)='AIRS',
   IWINDOW(1)=787,
   IWINDOW_ALT(1)=950,
   ILIST1(1,1)=528,
   ILIST1(1,2)=787,
   ILIST1(1,3)=950,
   ILIST1(1,4)=2209,
   ILIST2(1,1)=204,
   ILIST2(1,2)=221,
   ILIST2(1,3)=232,
   ILIST2(1,4)=252,
   ILIST2(1,5)=262,
   ILIST2(1,6)=272,
   ILIST2(1,7)=299,
   ILIST2(1,8)=305,
   ILIST2(1,9)=310,
   ILIST2(1,10)=355,
   ILIST2(1,11)=362,
   ILIST2(1,12)=375,
   ILIST2(1,13)=375,
   ILIST2_PAIR(1,1)=252,
   ILIST2_PAIR(1,2)=262,
   ILIST2_PAIR(1,3)=272,
   ILIST2_PAIR(1,4)=299,
   ILIST2_PAIR(1,5)=305,
   ILIST2_PAIR(1,6)=310,
   ILIST2_PAIR(1,7)=355,
   ILIST2_PAIR(1,8)=362,
   ILIST2_PAIR(1,9)=375,
   ILIST2_PAIR(1,10)=375,
   ILIST2_PAIR(1,11)=262,
   ILIST2_PAIR(1,12)=252,
   ILIST2_PAIR(1,13)=204,
   ICHN_SUN(1)=1865,
   INST(2)='IASI',
   IWINDOW(2)=1090,
   IWINDOW_ALT(2)=1133,
   ILIST1(2,1)=705,
   ILIST1(2,2)=1090,
   ILIST1(2,3)=1133,
   ILIST1(2,4)=7475,
   ILIST2(2,1)=252,
   ILIST2(2,2)=269,
   ILIST2(2,3)=285,
   ILIST2(2,4)=309,
   ILIST2(2,5)=320,
   ILIST2(2,6)=332,
   ILIST2(2,7)=363,
   ILIST2(2,8)=371,
   ILIST2(2,9)=375,
   ILIST2(2,10)=433,
   ILIST2(2,11)=442,
   ILIST2(2,12)=459,
   ILIST2(2,13)=459,
   ILIST2_PAIR(2,1)=309,
   ILIST2_PAIR(2,2)=320,
   ILIST2_PAIR(2,3)=332,
   ILIST2_PAIR(2,4)=363,
   ILIST2_PAIR(2,5)=371,
   ILIST2_PAIR(2,6)=375,
   ILIST2_PAIR(2,7)=433,
   ILIST2_PAIR(2,8)=442,
   ILIST2_PAIR(2,9)=459,
   ILIST2_PAIR(2,10)=459,
   ILIST2_PAIR(2,11)=320,
   ILIST2_PAIR(2,12)=309,
   ILIST2_PAIR(2,13)=252,
   ICHN_SUN(2)=5446,
   INST(3)='CRIS',
   IWINDOW(3)=427,
   IWINDOW_ALT(3)=534,
   ILIST1(3,1)=275,
   ILIST1(3,2)=427,
   ILIST1(3,3)=534,
   ILIST1(3,4)=1290,
   ILIST2(3,1)=97,
   ILIST2(3,2)=130,
   ILIST2(3,3)=116,
   ILIST2(3,4)=153,
   ILIST2(3,5)=169,
   ILIST2(3,6)=158,
   ILIST2(3,7)=143,
   ILIST2(3,8)=151,
   ILIST2(3,9)=239,
   ILIST2(3,10)=160,
   ILIST2(3,11)=228,
   ILIST2(3,12)=200,
   ILIST2(3,13)=200,
   ILIST2_PAIR(3,1)=153,
   ILIST2_PAIR(3,2)=169,
   ILIST2_PAIR(3,3)=158,
   ILIST2_PAIR(3,4)=143,
   ILIST2_PAIR(3,5)=151,
   ILIST2_PAIR(3,6)=239,
   ILIST2_PAIR(3,7)=160,
   ILIST2_PAIR(3,8)=228,
   ILIST2_PAIR(3,9)=200,
   ILIST2_PAIR(3,10)=200,
   ILIST2_PAIR(3,11)=169,
   ILIST2_PAIR(3,12)=153,
   ILIST2_PAIR(3,13)=97,	
   ICHN_SUN(3)=1147,
   INST(4)='CRIS-FSR',
   IWINDOW(4)=427,
   IWINDOW_ALT(4)=534,
   ILIST1(4,1)=275,
   ILIST1(4,2)=427,
   ILIST1(4,3)=534,
   ILIST1(4,4)=2151,
   ILIST2(4,1)=97,
   ILIST2(4,2)=130,
   ILIST2(4,3)=116,
   ILIST2(4,4)=153,
   ILIST2(4,5)=169,
   ILIST2(4,6)=158,
   ILIST2(4,7)=143,
   ILIST2(4,8)=151,
   ILIST2(4,9)=239,
   ILIST2(4,10)=160,
   ILIST2(4,11)=228,
   ILIST2(4,12)=200,
   ILIST2(4,13)=200,
   ILIST2_PAIR(4,1)=153,
   ILIST2_PAIR(4,2)=169,
   ILIST2_PAIR(4,3)=158,
   ILIST2_PAIR(4,4)=143,
   ILIST2_PAIR(4,5)=151,
   ILIST2_PAIR(4,6)=239,
   ILIST2_PAIR(4,7)=160,
   ILIST2_PAIR(4,8)=228,
   ILIST2_PAIR(4,9)=200,
   ILIST2_PAIR(4,10)=200,
   ILIST2_PAIR(4,11)=169,
   ILIST2_PAIR(4,12)=153,
   ILIST2_PAIR(4,13)=97,
   ICHN_SUN(4)=1579,
   DTW=1.5d0,
   DTL=4.0d0,
   PCO2MIN=56.73d0,
   PCO2MAX=321.5d0,
   NIGHT_ANG=100.d0,
/
 &NAMGPSRO
/
 &NAMGPSGB
/
 &NAMBURP_FILTER_SFC
  BNBITSOFF=0,
  BBITOFF(1)=2,
  BBITOFF(2)=4,
  BBITOFF(3)=5,
  BBITOFF(4)=-5,
  NELEMS_SFC=10,
  BLISTELEMENTS_SFC=10004,12004,10051,12203,11011,11012,13220,15031,15032,15035
/
 &NAMBURP_FILTER_CONV
  BNBITSOFF=0,
  BBITOFF(1)=2,
  BBITOFF(2)=4,
  BBITOFF(3)=5,
  BBITOFF(4)=-5,
  BBITOFF(5)=-8,
  NELEMS=10,
  BLISTELEMENTS=12001,11001,11002,12192,10194,15036,11011,11012,13210,13220
/
 &NAMBURP_FILTER_TOVS
  BNBITSOFF=0,
  BBITOFF(1)=2,
  BBITOFF(2)=4,
  BBITOFF(3)=5,
  BBITOFF(4)=-5,
  BBITOFF(5)=-8,
  NELEMS=1
  BLISTELEMENTS=12163
/
 &NAMBURP_UPDATE
  BN_ITEMS=1,
  BITEMLIST(1)='OMP',
  BITEMLIST(2)='OMA',
  BITEMLIST(3)='FGE',
  TYPE_RESUME='BGCKALT'
/
&NAMBIASSAT
    biasActive=.TRUE.,
    BG_STDDEV=2.d1, 2.d1, 2.d1, 2.d1, 2.d1, 2.d1
    biasmode="apply",
    removeBiasCorrection=.false.
    refreshBiasCorrection=.false.
    mimicsatbcor=.true.
    scanBiasCorLength=-1.d0
    centerPredictors=.false.,
    weightedEstimate=.false.,
    outstats=.false.,
    outcoeffcov=.false.,
    filterObs = .false.,
    cinst(1)="AMSUA"
    nbscan(1)=30
    cglobal(1)="DEF"
    cinst(2)="AMSUB"
    nbscan(2)=90
    cglobal(2)="DEF"
    cinst(3)="MHS"
    nbscan(3)=90
    cglobal(3)="DEF"
    cinst(4)="SSMIS"
    nbscan(4)=60
    cglobal(4)="NON"
    cinst(5)="AIRS"
    nbscan(5)=1
    cglobal(5)="NON"
    cinst(6)="IASI"
    nbscan(6)=1
    cglobal(6)="NON"
    cinst(7)="METS7"
    nbscan(7)=1
    cglobal(7)="OUI"
    cinst(8)="SEVIRI"
    nbscan(8)=1
    cglobal(8)="OUI"
    cinst(9)="MTSAT"
    nbscan(9)=1
    cglobal(9)="OUI"
    cinst(10)="CGOES"
    nbscan(10)=1
    cglobal(10)="OUI"
    cinst(11)="ATMS"
    nbscan(11)=96
    cglobal(11)="DEF"
    cinst(12)="CRIS"
    nbscan(12)=1
    cglobal(12)="NON"
    cinst(13)="CRIS-FSR"
    nbscan(13)=1
    cglobal(13)="NON"
    cinst(14)="AHI"
    nbscan(14)=1
    cglobal(14)="OUI"
/
