 &NAMBGCK
  instName = 'ATMS'
  burpFileNameIn = './obsatms'
  burpFileNameOut = './obsatms.out'
  mglg_file  = './fstmglg'
  statsFile = './stats_atms_assim'
  writeModelLsqTT = .false.
  writeEle25174 = .true.
  debug = .false.
  RESETQC = .FALSE.
  ETIKRESU = '>>BGCKALT'
  writeTbValuesToFile = .false.
/
 &NAMMWOBS
  reportNumMax = 500
  locationNumMax = 150
  channelNumMax = 22
/
 &NAMDIMO
   NMXOBS=75000,
   NDATAMX=4000000,
/
