 &NAMBGCK
  instName = 'ATMS'
  burpFileNameIn = './obsatms'
  burpFileNameOut = './obsatms.out'
  mglg_file  = './fstmglg'
  statsFile = './stats_atms_assim'
  writeModelLsqTT = .false.
  writeEle25174 = .true.
  debug = .false.
  RESETQC = .FALSE.
  ETIKRESU = '>>BGCKALT'
  writeTbValuesToFile = .false.
/
 &NAMMWOBS
  reportNumMax = 600
  locationNumMax = 4500
  channelNumMax = 22

/
