 &namEnsPostProc
   nEns                  = 80
   readTrlEnsemble       = .true.
   readAnlEnsemble       = .false.
/
 &namEnsPostProcModule
   !weightRecenter           = 1.0D0
/
 &NAMBHI
/
 &NAMBEN
/
 &NAMTIME
   DSTEPOBSINC = 6.0d0
   DSTEPOBS    = 6.0d0
/
 &NAMSTATE
   ANLVAR(1)    ='TM'
   ANLVAR(2)    ='SALW'
/
