 &NAMCT0
   NCONF  = 121,
/
 &NAMDIM
   NJ      = 120,
   NI      = 240,
/
 &NAMMIN
   LVARQC=.FALSE.,
/
 &NAMDIMO
   NMXOBS=1000000,
   NDATAMX=20000000,
/
 &NAMFILT
  DSTEPOBS = 6d0
  NELEMS = 3,
  NLIST(1)=12062,
  NLIST(2)=12063,
  NLIST(3)=12163,
  NLIST(4)=11003,
  NLIST(5)=11004,
  NLIST(6)=10194,
  NLIST(7)=12192,
  NFLAGS=0,
  NLISTFLG(1)=4,
  NLISTFLG(2)=5,
  NLISTFLG(3)=9,
  NLISTFLG(4)=11,
  NLISTFLG(5)=12,
  NLISTFLG(6)=2,
  RLIMLVHU   = 70.
/
 &NAMPOST
  NPPCVAR    = 13,
  CPPCVAR(1) = 'UU',
  CPPCVAR(2) = 'VV',
  CPPCVAR(3) = 'TT',
  CPPCVAR(4) = 'LQ',
  CPPCVAR(5) = 'P0',
  CPPCVAR(6) = 'TG'
  CPPCVAR(7) = 'HU'
  CPPCVAR(8) = 'GZ'
  CPPCVAR(9) = 'ES'
  CPPCVAR(10)= 'QR'
  CPPCVAR(11)= 'DD'
  CPPCVAR(12)= 'VT'
  CPPCVAR(13)= 'QQ'
  CPPCVAR(14)= 'PP',
  CPPCVAR(15)= 'CC'
  CPPCVAR(16)= 'TB'
  CPPCVAR(17)= 'TU'
  CPPCVAR(18)= 'ZB'
  CPPCVAR(19)= 'ZU'
  CPPCVAR(20)= 'PB'
/
 &NAMSTATE
   CGNEED(1)   ='UU'
   CGNEED(2)   ='VV'
   CGNEED(3)   ='TT'
   CGNEED(4)   ='HU'
   CGNEED(5)   ='P0'
   CGNEED(6)   ='TG'
/
 &NAMSTATEO
   CMVONEED(1)   ='UU'
   CMVONEED(2)   ='VV'
   CMVONEED(3)   ='TT'
   CMVONEED(4)   ='HU'
   CMVONEED(5)   ='ES'
   CMVONEED(6)   ='GZ'
   CMVONEED(7)   ='P0'
   CMVONEED(8)   ='TG'
/
 &NAMMULTI
  NCPU=4
/
 &NAMTOV
   NSENSORS =  19,
   CSATID(1)        = 'AQUA',
   CINSTRUMENTID(1) = 'AIRS',
   CSATID(2)        = 'METOP-2',
   CINSTRUMENTID(2) = 'IASI',
   CSATID(3)        = 'NOAA15',
   CINSTRUMENTID(3) = 'AMSUA',
   CSATID(4)        = 'NOAA16',
   CINSTRUMENTID(4) = 'AMSUA',
   CSATID(5)        = 'NOAA17',
   CINSTRUMENTID(5) = 'AMSUA',
   CSATID(6)        = 'AQUA',
   CINSTRUMENTID(6) = 'AMSUA',
   CSATID(7)        = 'NOAA18',
   CINSTRUMENTID(7) = 'AMSUA',
   CSATID(8)        = 'NOAA15',
   CINSTRUMENTID(8) = 'AMSUB',
   CSATID(9)        = 'NOAA16',
   CINSTRUMENTID(9) = 'AMSUB',
   CSATID(10)       = 'NOAA17',
   CINSTRUMENTID(10) = 'AMSUB',
   CSATID(11)        = 'NOAA18',
   CINSTRUMENTID(11) = 'MHS',
   CSATID(12)        = 'DMSP16',
   CINSTRUMENTID(12) = 'SSMIS',
   CSATID(13)        = 'GOES11',
   CINSTRUMENTID(13) = 'GOESIMAGER',
   CSATID(14)        = 'MSG2',
   CINSTRUMENTID(14) = 'SEVIRI',
   CSATID(15)        = 'METEOSAT7',
   CINSTRUMENTID(15) = 'MVIRI',
   CSATID(16)        = 'METOP-2',
   CINSTRUMENTID(16) = 'AMSUA',
   CSATID(17)        = 'METOP-2',
   CINSTRUMENTID(17) = 'MHS',
   CSATID(18)        = 'NOAA19',
   CINSTRUMENTID(18) = 'AMSUA',
   CSATID(19)        = 'NOAA19',
   CINSTRUMENTID(19) = 'MHS',
   LTSTTOV    = .FALSE.,
   LDBGTOV    = .FALSE.,
   LRTNADIR   = .FALSE.,
   LEVEL1B    = .TRUE.,
   CRTMODL    = 'RTTOV',
/
 &NAMBGCHK
/
 &NAMGPSRO
/
 &NAMSHARED_AAI_3DV
   CVCORD='GEMHYB'
/
&NAMBURP_FILTER_SFC
  BNBITSOFF=0,
  BBITOFF(1)=2,
  BBITOFF(2)=4,
  BBITOFF(3)=5,
  BBITOFF(4)=-5,
  NELEMS_SFC=7,
  BLISTELEMENTS_SFC=10004,12004,10051,12203,11011,11012,13220
/
 &NAMBURP_FILTER_CONV
  BNBITSOFF=0,
  BBITOFF(1)=2,
  BBITOFF(2)=4,
  BBITOFF(3)=5,
  BBITOFF(4)=-5,
  BBITOFF(5)=-8,
  NELEMS=10,
  BLISTELEMENTS=12001,11001,11002,12192,10194,15036,11011,11012,13210,13220
/
 &NAMBURP_FILTER_TOVS
  BNBITSOFF=0,
  BBITOFF(1)=2,
  BBITOFF(2)=4,
  BBITOFF(3)=5,
  BBITOFF(4)=-5,
  BBITOFF(5)=-8,
  NELEMS=1
  BLISTELEMENTS=12163
/
 &NAMBURP_UPDATE
  BN_ITEMS=1,
  BITEMLIST(1)='OMP',
  BITEMLIST(2)='OMA',
  BITEMLIST(3)='FGE',
  TYPE_RESUME='POSTALT'
/
