 &NAMOMF
   ADDSIGMAO = .TRUE.
   ADDHBHT   = .FALSE.
/
 &NAMDIMO
   NMXOBS=400000,
   NDATAMX=7000000,
/
 &NAMTIME
  DSTEPOBS = 1.0D0
/
 &NAMFILT
  NLIST(1)=22042,
  RLIMLVHU   = 70.D0
/
 &NAMSTATE
   RHUMIN  = 1.0D-07
   ANLVAR(5)   ='P0'
   ANLVAR(6)   ='TG'
/
 &namSQLInsert
  numberInsertItems=4
  itemInsertList(1)=11215
  itemInsertList(2)=11216
  itemInsertList(3)=11003
  itemInsertList(4)=11004

/
 &namSQLUpdate
 numberUpdateItems=2
 itemUpdateList(1)='OMP'
 itemUpdateList(2)='OMA'
/
 &NAMSQLsfc
   numberElem=1
   listElem='22042'
   sqlNull=' and obsvalue is not null '
/ 
 &namSSTObsErrors
   !#                     dataType ,    instrument ,   sensor ,  sensorType , codetype , dayError , nightError
   SSTdataParams(1)  =    'insitu' ,     'drifter' ,       '' ,          '' ,       18 ,     0.36 ,       0.36
   SSTdataParams(2)  =    'insitu' ,        'ship' ,       '' ,          '' ,       13 ,     0.64 ,       0.64
   SSTdataParams(3)  =    'insitu' , 'moored buoy' ,       '' ,          '' ,      147 ,     0.49 ,       0.49
   SSTdataParams(4)  = 'satellite' ,       'AVHRR' , 'NOAA18' ,  'infrared' ,       88 ,     0.80 ,       0.49
   SSTdataParams(5)  = 'satellite' ,       'AVHRR' , 'NOAA19' ,  'infrared' ,       88 ,     0.80 ,       0.49
   SSTdataParams(6)  = 'satellite' ,       'AVHRR' , 'METO-A' ,  'infrared' ,       88 ,     0.80 ,       0.49
   SSTdataParams(7)  = 'satellite' ,       'AVHRR' , 'METO-B' ,  'infrared' ,       88 ,     0.80 ,       0.49
   SSTdataParams(8)  = 'satellite' ,       'AVHRR' , 'METO-C' ,  'infrared' ,       88 ,     0.80 ,       0.49
   SSTdataParams(9)  = 'satellite' ,       'VIIRS' ,    'N20' ,  'infrared' ,       88 ,     0.80 ,       0.49
   SSTdataParams(10) = 'satellite' ,       'VIIRS' ,    'NPP' ,  'infrared' ,       88 ,     0.80 ,       0.49
   SSTdataParams(11) = 'satellite' ,       'AMSR2' ,  'AMSR2' , 'microwave' ,       88 ,     0.80 ,       0.80
   SSTdataParams(12) =    'pseudo' ,       'Bogus' ,       '' ,          '' ,      150 ,     1.00 ,       1.00
/
&namReadSSTSat
   numberElem=1
   listElem='22042'
   sqlExtraDat=' and id_obs in (select id_obs from header where id_stn in ("METO-A","METO-B","METO-C","NOAA19","N20","NPP","AMSR2")) '
   sqlNull=' and obsvalue is not null '
   sqlExtraHeader=' id_stn in ("METO-A","METO-B","METO-C","NOAA19","N20","NPP","AMSR2") '
/
