 &NAMOMF
   ADDSIGMAO = .TRUE.
   ADDHBHT   = .FALSE.
/
 &NAMDIMO
   NMXOBS=400000,
   NDATAMX=7000000,
/
 &NAMTIME
  DSTEPOBS = 1.0D0
/
 &NAMFILT
  NELEMS = 1,
  NLIST(1)=22042,
  NFLAGS=0,
  NLISTFLG(1)=4,
  NLISTFLG(2)=5,
  NLISTFLG(3)=9,
  NLISTFLG(4)=11,
  NLISTFLG(5)=12,
  NLISTFLG(6)=2,
  RLIMLVHU   = 70.D0
/
 &NAMRMAT
/
 &NAMSTATE
   RHUMIN  = 1.0D-07
   ANLVAR(5)   ='P0'
   ANLVAR(6)   ='TG'
/
 &NAMTOV
   NSENSORS         =  24,
   CSATID(1)        = 'NOAA15',
   CINSTRUMENTID(1) = 'AMSUA',
   CSATID(2)        = 'NOAA16',
   CINSTRUMENTID(2) = 'AMSUA',
   CSATID(3)        = 'NOAA15',
   CINSTRUMENTID(3) = 'AMSUB',
   CSATID(4)        = 'NOAA16',
   CINSTRUMENTID(4) = 'AMSUB',
   CSATID(5)        = 'AQUA',
   CINSTRUMENTID(5) = 'AMSUA',
   CSATID(6)        = 'NOAA18',
   CINSTRUMENTID(6) = 'AMSUA',
   CSATID(7)        = 'NOAA18',
   CINSTRUMENTID(7) = 'MHS',
   CSATID(8)        = 'METOP-2',
   CINSTRUMENTID(8) = 'AMSUA',
   CSATID(9)        = 'METOP-1',
   CINSTRUMENTID(9) = 'AMSUA',
   CSATID(10)       = 'METOP-2',
   CINSTRUMENTID(10)= 'MHS',
   CSATID(11)       = 'METOP-1',
   CINSTRUMENTID(11)= 'MHS',
   CSATID(12)       = 'NOAA19',
   CINSTRUMENTID(12)= 'AMSUA',
   CSATID(13)       = 'NOAA19',
   CINSTRUMENTID(13)= 'MHS',
   CSATID(14)       = 'NPP',
   CINSTRUMENTID(14)= 'ATMS',
   CSATID(15)       = 'DMSP16',
   CINSTRUMENTID(15)= 'SSMIS',
   CSATID(16)       = 'DMSP17',
   CINSTRUMENTID(16)= 'SSMIS',
   CSATID(17)       = 'DMSP18',
   CINSTRUMENTID(17)= 'SSMIS',
   CSATID(18)       = 'GOES13',
   CINSTRUMENTID(18)= 'GOESIMAGER',
   CSATID(19)       = 'GOES15',
   CINSTRUMENTID(19)= 'GOESIMAGER',
   CSATID(20)       = 'MSG2',
   CINSTRUMENTID(20)= 'SEVIRI',
   CSATID(21)       = 'MSG3',
   CINSTRUMENTID(21)= 'SEVIRI',
   CSATID(22)       = 'METEOSAT7',
   CINSTRUMENTID(22)= 'MVIRI',
   CSATID(23)       = 'MTSAT2',
   CINSTRUMENTID(23)= 'GMSMTSAT',
   CSATID(24)       = 'HMWARI-8',
   CINSTRUMENTID(24)= 'AHI',
   CSATID(25)       = 'MTSAT1',
   CINSTRUMENTID(25)= 'GMSMTSAT',
   LDBGTOV    = .FALSE.,
   CRTMODL    = 'RTTOV',
   regLimitExtrap=.false.
/
 &NAMSAT
   LISTBURP(1)=054, ! METEOSAT 7
   LISTPLAT(1)="meteosat",
   LISTSAT(1)=007
   LISTBURP(2)=206, ! NOAA 15
   LISTPLAT(2)="noaa",
   LISTSAT(2)=015,
   LISTBURP(3)=207, ! NOAA 16
   LISTPLAT(3)="noaa",
   LISTSAT(3)=016,
   LISTBURP(4)=246, ! DMSP 13
   LISTPLAT(4)="dmsp",
   LISTSAT(4)=013,
   LISTBURP(5)=247, ! DMSP 14
   LISTPLAT(5)="dmsp",
   LISTSAT(5)=014,
   LISTBURP(6)=248, ! DMSP 15
   LISTPLAT(6)="dmsp",
   LISTSAT(6)=015,
   LISTBURP(7)=249, ! DMSP 16
   LISTPLAT(7)="dmsp",
   LISTSAT(7)=016,
   LISTBURP(8)=255, ! GOES 11
   LISTPLAT(8)="goes",
   LISTSAT(8)=011,
   LISTBURP(9)=256, ! GOES 12
   LISTPLAT(9)="goes",
   LISTSAT(9)=012,
   LISTBURP(10)=784,! AQUA (EOS 2)
   LISTPLAT(10)="eos",
   LISTSAT(10)=002,
   LISTBURP(11)=208,! NOAA 17
   LISTPLAT(11)="noaa",
   LISTSAT(11)=017,
   LISTBURP(12)=209,! NOAA 18
   LISTPLAT(12)="noaa",
   LISTSAT(12)=018,
   LISTBURP(13)=003,! METOP-1 (METOP-B)
   LISTPLAT(13)="metop",
   LISTSAT(13)=001,
   LISTBURP(14)=004,! METOP-2 (METOP-A)
   LISTPLAT(14)="metop",
   LISTSAT(14)=002,
   LISTBURP(15)=005,! METOP-3 (METOP-C)
   LISTPLAT(15)="metop",
   LISTSAT(15)=003,
   LISTBURP(16)=223,! NOAA 19
   LISTPLAT(16)="noaa",
   LISTSAT(16)=019,
   LISTBURP(17)=171,! MTSAT-1R
   LISTPLAT(17)="mtsat-1r",
   LISTSAT(17)=001,
   LISTBURP(18)=056,! METEOSAT 9 (MSG 2)
   LISTPLAT(18)="msg",
   LISTSAT(18)=002,
   LISTBURP(19)=257,! GOES 13
   LISTPLAT(19)="goes",
   LISTSAT(19)=013,
   LISTBURP(20)=285,! DMSP17
   LISTPLAT(20)="dmsp",
   LISTSAT(20)=017,
   LISTBURP(21)=286,! DMSP18
   LISTPLAT(21)="dmsp",
   LISTSAT(21)=018,
   LISTBURP(22)=224,! NPP
   LISTPLAT(22)="jpss",
   LISTSAT(22)=000,
   LISTBURP(23)=259,! GOES 15
   LISTPLAT(23)="goes",
   LISTSAT(23)=015, 
   LISTBURP(24)=172,! MTSAT-2
   LISTPLAT(24)="mtsat",
   LISTSAT(24)=002,
   LISTBURP(25)=258,! GOES 14
   LISTPLAT(25)="goes",
   LISTSAT(25)=014,
   LISTBURP(26)=057,! METEOSAT 10 alias MSG 3
   LISTPLAT(26)="msg",
   LISTSAT(26)=003,
   LISTBURP(27)=070,! METEOSAT 11 alias MSG 4
   LISTPLAT(27)="msg",
   LISTSAT(27)=004,
   LISTBURP(28)=173,! HMWARI-8
   LISTPLAT(28)="hmwari",
   LISTSAT(28)=008,
/
 &NAMBGCHK
/
 &NAMINST
   LISTBURP(1)=050
   LISTINSTRUM(1)="atsr",
   LISTBURP(2)=203,
   LISTINSTRUM(2)="mhs",
   LISTBURP(3)=205,
   LISTINSTRUM(3)="mviri",
   LISTBURP(4)=207, 
   LISTINSTRUM(4)="seviri",
   LISTBURP(5)=221, 
   LISTINSTRUM(5)="iasi",
   LISTBURP(6)=295,
   LISTINSTRUM(6)="gmsim",
   LISTBURP(7)=296, 
   LISTINSTRUM(7)="gmsim",
   LISTBURP(8)=365, 
   LISTINSTRUM(8)="tmi",
   LISTBURP(9)=389, 
   LISTINSTRUM(9)="modis",
   LISTBURP(10)=420,
   LISTINSTRUM(10)="airs",
   LISTBURP(11)=570,
   LISTINSTRUM(11)="amsua",
   LISTBURP(12)=571,
   LISTINSTRUM(12)="amsua",
   LISTBURP(13)=572,
   LISTINSTRUM(13)="amsua",
   LISTBURP(14)=573,
   LISTINSTRUM(14)="amsua",
   LISTBURP(15)=574,
   LISTINSTRUM(15)="amsub",
   LISTBURP(16)=590,
   LISTINSTRUM(16)="avhrr",
   LISTBURP(17)=591,
   LISTINSTRUM(17)="avhrr",
   LISTBURP(18)=592,
   LISTINSTRUM(18)="avhrr",
   LISTBURP(19)=605,
   LISTINSTRUM(19)="hirs",
   LISTBURP(20)=606,
   LISTINSTRUM(20)="hirs",
   LISTBURP(21)=607,
   LISTINSTRUM(21)="hirs",
   LISTBURP(22)=615,
   LISTINSTRUM(22)="goesim",
   LISTBURP(23)=620,
   LISTINSTRUM(23)="cris",
   LISTBURP(24)=621,
   LISTINSTRUM(24)="atms",
   LISTBURP(25)=626,
   LISTINSTRUM(25)="goessd",
   LISTBURP(26)=623,
   LISTINSTRUM(26)="msu",
   LISTBURP(27)=627,
   LISTINSTRUM(27)="ssu",
   LISTBURP(28)=905,	
   LISTINSTRUM(28)="ssmi",
   LISTBURP(29)=908,
   LISTINSTRUM(29)="ssmis",
   LISTBURP(30)=2047,
   LISTINSTRUM(30)="airs",
   LISTBURP(31)=297,
   LISTINSTRUM(31)="ahi",
/ 
 &NAMCHANOFFSET
   LISTOFFSET(1)=27,
   LISTINSTRUM(1)="amsua",
   LISTOFFSET(2)=42,
   LISTINSTRUM(2)="amsub",
   LISTOFFSET(3)=42,
   LISTINSTRUM(3)="mhs",   
   LISTOFFSET(4)=3,
   LISTINSTRUM(4)="seviri",   
   LISTOFFSET(5)=18,
   LISTINSTRUM(5)="goesim",   
/
 &NAMTOVSINST
   inst_names(1)='amsua',
   inst_names(2)='amsub',
   inst_names(3)='mhs',
   inst_names(4)='ssmis',
   inst_names(5)='atms',
   inst_names(6)='airs',
   inst_names(7)='iasi',
   inst_names(8)='cris',
   inst_names(9)='radianceclear',
/
 &NAMHYPER
   name_inst(1)='airs',
   name_inst(2)='iasi',
   name_inst(3)='cris',
/
 &NAMGEO
   name_inst(1)='goesim',
   name_inst(2)='ahi',
   name_inst(3)='mviri',
   name_inst(4)='seviri',
   name_inst(5)='gmsim',
   name_inst(6)='mtsatim',
/
 &NAMCODTYP
/
 &NAMGPSRO
/
 &NAMGPSGB
/
 &NAMBURP_FILTER_SFC
  BNBITSOFF=0,
  BBITOFF(1)=2,
  BBITOFF(2)=4,
  BBITOFF(3)=5,
  BBITOFF(4)=-5,
  NELEMS_SFC=10,
  BLISTELEMENTS_SFC=10004,12004,10051,12203,11011,11012,13220,15031,15032,15035
/
 &NAMBURP_FILTER_CONV
  BNBITSOFF=0,
  BBITOFF(1)=2,
  BBITOFF(2)=4,
  BBITOFF(3)=5,
  BBITOFF(4)=-5,
  BBITOFF(5)=-8,
  NELEMS=10,
  BLISTELEMENTS=12001,11001,11002,12192,10194,15036,11011,11012,13210,13220
/
 &NAMBURP_FILTER_TOVS
  BNBITSOFF=0,
  BBITOFF(1)=2,
  BBITOFF(2)=4,
  BBITOFF(3)=5,
  BBITOFF(4)=-5,
  BBITOFF(5)=-8,
  NELEMS=1
  BLISTELEMENTS=12163
/
 &NAMBURP_UPDATE
  BN_ITEMS=1,
  BITEMLIST(1)='OMP',
  BITEMLIST(2)='OMA',
  BITEMLIST(3)='FGE',
  TYPE_RESUME='DERIALT'
 &namSQLInsert
  numberInsertItems=4
  itemInsertList(1)=11215
  itemInsertList(2)=11216
  itemInsertList(3)=11003
  itemInsertList(4)=11004

/
 &namSQLUpdate
 numberUpdateItems=2
 itemUpdateList(1)='OMP'
 itemUpdateList(2)='OMA'
/
 &NAMSQLamsua
/
 &NAMSQLamsub
/
 &NAMSQLssmi
/
 &NAMSQLatms
/
 &NAMSQLcsr
/
 &NAMSQLairs
/
 &NAMSQLai
  numberElem=4
  listElem="12001,11001,11002,12192"
  sqlNull=" and obsvalue is not null and vcoord is not null "
/
 &NAMSQLcris
/
 &NAMSQLgp
/
 &NAMSQLiasi
/
 &NAMSQLro
  numberElem=2
  listElem="15036,15037"
  sqlNull=" and obsvalue is not null and vcoord is not null "
/
 &NAMSQLsc
   numberElem=2
   listElem="11011,11012"
   sqlNull = " and obsvalue is not null "
/
 &NAMSQLsfc
   numberElem=1
   listElem="22042, 7025"
   sqlNull=" and obsvalue is not null "  
/
 &NAMSQLsw
  numberElem=2
  listElem="11001,11002"
  sqlNull=" and obsvalue is not null and vcoord is not null "
/
 &NAMSQLua
  numberElem=11   
  listElem="12004,12203,10051,10004,11011,11012,12001,11001,11002,12192,10194"
  sqlNull=" and obsvalue is not null " 
/
 &NAMSQLpr
  numberElem=2
  listElem="11001,11002"
  sqlNull=" and obsvalue is not null and vcoord is not null "
/

