 &NAMOMF
   ADDSIGMAO = .TRUE.
   ADDHBHT   = .FALSE.
/
 &NAMDIMO
   NMXOBS=400000,
   NDATAMX=7000000,
/
 &NAMTIME
  DSTEPOBS = 1.0D0
/
 &NAMFILT
  NELEMS = 1,
  NLIST(1)=22042,
  NFLAGS=0,
  NLISTFLG(1)=4,
  NLISTFLG(2)=5,
  NLISTFLG(3)=9,
  NLISTFLG(4)=11,
  NLISTFLG(5)=12,
  NLISTFLG(6)=2,
  RLIMLVHU   = 70.D0
/
 &NAMSTATE
   RHUMIN  = 1.0D-07
   ANLVAR(5)   ='P0'
   ANLVAR(6)   ='TG'
/
 &namSQLInsert
  numberInsertItems=4
  itemInsertList(1)=11215
  itemInsertList(2)=11216
  itemInsertList(3)=11003
  itemInsertList(4)=11004

/
 &namSQLUpdate
 numberUpdateItems=2
 itemUpdateList(1)='OMP'
 itemUpdateList(2)='OMA'
/
 &NAMSQLsfc
   numberElem=1
   listElem='22042'
   sqlNull=' and obsvalue is not null '
/
&namReadSSTSat
   numberElem=1
   listElem='22042'
   sqlExtraDat=' and id_obs in (select id_obs from header where id_stn in ("METO-A","METO-B","NOAA18","NOAA19","NPP","AMSR2")) '
   sqlNull=' and obsvalue is not null '
   sqlExtraHeader=' id_stn in ("METO-A","METO-B","NOAA18","NOAA19","NPP","AMSR2") '
/
