 &thin_scat
   deltax = 100
   deltmax = 90
/
 &NAMTIME
   DSTEPOBS = 0.25d0
   DSTEPOBSINC = 6.0d0
/
 &NAMFILT
   NELEMS    = 16,
   NLIST(1)=11003,
   NLIST(2)=11004,
   NLIST(3)=12192,
   NLIST(4)=10192,
   NLIST(5)=10194,
   NLIST(6)=12001,
   NLIST(7)=10004,
   NLIST(8)=10051,
   NLIST(9)=12004,
   NLIST(10)=11215,
   NLIST(11)=11216,
   NLIST(12)=12203,
   NLIST(13)=12163,
   NLIST(14)=15036,
   NLIST(15)=15031,
   NLIST(16)=40030,
   NFLAGS=0,
   NLISTFLG(1)=2,
   NLISTFLG(2)=4,
   NLISTFLG(3)=5,
   NLISTFLG(4)=11,
   RLIMLVHU=70.,
/
 &NAMDIMO
   NMXOBS =500000,
   NDATAMX=5000000,
/
 &NAMCODTYP
/
 &NAMBURP_FILTER_SFC
  BNBITSOFF=0,
  BBITOFF(1)=2,
  BBITOFF(2)=4,
  BBITOFF(3)=5,
  BBITOFF(4)=-5,
  NELEMS_SFC=10,
  BLISTELEMENTS_SFC=10004,12004,10051,12203,11011,11012,13220,15031,15032,15035
/
 &NAMBURP_UPDATE
  BN_ITEMS=0,
  BITEMLIST(1)='OMP',
  TYPE_RESUME='BGCKALT'
/
