 &NAMLETKF
   algorithm             = 'LETKF'
   ensPostProcessing     = .true.
   recenterInputEns      = .true.
   NENS                  = 80
   maxNumLocalObs        = 5000
   weightLatLonStep      = 4
   hLocalize             = 200.0D0
   vLocalize             = 15.0D0
   minDistanceToLand     = 75.0D0
   modifyAmsubObsError   = .false.
   backgroundCheck       = .false.
   huberize              = .false.
   rejectHighLatIR       = .false.
   rejectRadNearSfc      = .false.
   ignoreEnsDate         = .true.
   outputOnlyEnsMean     = .true.
   obsTimeInterpType     = 'LINEAR'
   mpiDistribution       = 'ROUNDROBIN'
/
 &namEnsPostProcModule
/
 &NAMWRITEDIAG
   lWriteDiagSql   = .true.
   onlyAssimObs    = .true.
/
 &NAMTIME
   DSTEPOBS    = 24.0d0
   DSTEPOBSINC = 24.0d0
   DWINDOWSIZE = 24.0d0
/
 &NAMSTATE
   ANLVAR(1)   = 'SSH'
   ANLVAR(2)   = 'TM'
   ANLVAR(3)   = 'SALW'
/
 &NAMDIMO
   NMXOBS  =  500000
   NDATAMX = 1000000
/
 &NAMFILT
  NELEMS = 1,
  NLIST(1)=22042
  NFLAGS=6
  NLISTFLG(1)=2
  NLISTFLG(2)=3
  NLISTFLG(3)=4
  NLISTFLG(4)=10
  NLISTFLG(5)=11
  NLISTFLG(6)=12
/
 &NAMSQLsfc
   numberElem=1
   listElem="22042, 7025"
   sqlNull=" and obsvalue is not null "  
/ 
 &namSSTObsErrors
   numberSSTDatasets = 11
   !#                        dataType ,    instrument ,   sensor ,  sensorType , codetype , dayError , nightError
   setSSTdataParams(1)  =    'insitu' ,     'drifter' ,       '' ,          '' ,       18 ,     0.36 ,       0.36
   setSSTdataParams(2)  =    'insitu' ,        'ship' ,       '' ,          '' ,       13 ,     0.64 ,       0.64
   setSSTdataParams(3)  =    'insitu' , 'moored buoy' ,       '' ,          '' ,      147 ,     0.49 ,       0.49
   setSSTdataParams(4)  = 'satellite' ,       'AVHRR' , 'NOAA19' ,  'infrared' ,       88 ,     0.80 ,       0.49
   setSSTdataParams(5)  = 'satellite' ,       'AVHRR' , 'METO-A' ,  'infrared' ,       88 ,     0.80 ,       0.49
   setSSTdataParams(6)  = 'satellite' ,       'AVHRR' , 'METO-B' ,  'infrared' ,       88 ,     0.80 ,       0.49
   setSSTdataParams(7)  = 'satellite' ,       'AVHRR' , 'METO-C' ,  'infrared' ,       88 ,     0.80 ,       0.49
   setSSTdataParams(8)  = 'satellite' ,       'VIIRS' ,    'N20' ,  'infrared' ,       88 ,     0.80 ,       0.49
   setSSTdataParams(9)  = 'satellite' ,       'VIIRS' ,    'NPP' ,  'infrared' ,       88 ,     0.80 ,       0.49
   setSSTdataParams(10) = 'satellite' ,       'AMSR2' ,  'AMSR2' , 'microwave' ,       88 ,     0.80 ,       0.80
   setSSTdataParams(11) =    'pseudo' ,       'Bogus' ,       '' ,          '' ,      150 ,     1.00 ,       1.00
/
 &NAMSQLUpdate
  numberUpdateItems=2
  itemUpdateList(1)='OMP'
  itemUpdateList(2)='OMA'
/
 &namSQLInsert
/
 &NAMCODTYP
/
