 &NAMBGCK
  instName = 'ATMS'
  debug = .false.
  RESETQC = .false.
  clwQcThreshold = 0.6
  useUnbiasedObsForClw =.true.
  cloudyClwThresholdBcorr = 0.05,
/
 &namObsSelection
  doThinning = .false.
/
 &NAMobsDB
   obsDbActive = .true.
   numElemIdList = 1
   elemIdList(1) = 12163
/
 &namObsDbMIDASBodyUpdate
   numberUpdateItems=4
   updateItemList(1)='OMP'
   updateItemList(2)='BCOR'
   updateItemList(3)='OER'
   updateItemList(4)='SEM'
/
 &namObsDbMIDASHeaderUpdate
   numberUpdateItems=12
   updateItemList(1)='ETOP'
   updateItemList(2)='VTOP'
   updateItemList(3)='ECF'
   updateItemList(4)='VCF'
   updateItemList(5)='HE'
   updateItemList(6)='NCO2'
   updateItemList(7)='ZTSR'
   updateItemList(8)='ZTM'
   updateItemList(9)='ZLQM'
   updateItemList(10)='ZTGM'
   updateItemList(11)='ZPS'
   updateItemList(12)='STYP'
/
 &NAMDIMO
   NMXOBS=400000,
   NDATAMX=7000000,
/
 &NAMTIME
  DSTEPOBS = 3.0D0
/
 &NAMFILT
  NELEMS = 3,
  NLIST(1)=12062,
  NLIST(2)=12063,
  NLIST(3)=12163,
  NFLAGS=0,
  NLISTFLG(1)=4,
  NLISTFLG(2)=5,
  NLISTFLG(3)=9,
  NLISTFLG(4)=11,
  NLISTFLG(5)=12,
  NLISTFLG(6)=2,
  RLIMLVHU   = 70.D0
/
 &NAMRMAT
/
 &NAMSTATE
   abortOnMpiImbalance = .false.
   addHeightSfcOffset = .false.
   RHUMIN  = 1.0D-07
   ANLVAR(1)   ='UU'
   ANLVAR(2)   ='VV'
   ANLVAR(3)   ='TT'
   ANLVAR(4)   ='HU'
   ANLVAR(5)   ='P0'
   ANLVAR(6)   ='TG'
/
 &NAMTOV
   NSENSORS         =  2,
   CSATID(1)        = 'NPP',
   CINSTRUMENTID(1) = 'ATMS',
   CSATID(2)        = 'NOAA20',
   CINSTRUMENTID(2) = 'ATMS',
   LDBGTOV    = .FALSE.,
   CRTMODL    = 'RTTOV',
   regLimitExtrap=.false.
/
 &NAMSAT
   LISTBURP(1)=054, ! METEOSAT 7
   LISTPLAT(1)="meteosat",
   LISTSAT(1)=007
   LISTBURP(2)=206, ! NOAA 15
   LISTPLAT(2)="noaa",
   LISTSAT(2)=015,
   LISTBURP(3)=207, ! NOAA 16
   LISTPLAT(3)="noaa",
   LISTSAT(3)=016,
   LISTBURP(4)=246, ! DMSP 13
   LISTPLAT(4)="dmsp",
   LISTSAT(4)=013,
   LISTBURP(5)=247, ! DMSP 14
   LISTPLAT(5)="dmsp",
   LISTSAT(5)=014,
   LISTBURP(6)=248, ! DMSP 15
   LISTPLAT(6)="dmsp",
   LISTSAT(6)=015,
   LISTBURP(7)=249, ! DMSP 16
   LISTPLAT(7)="dmsp",
   LISTSAT(7)=016,
   LISTBURP(8)=255, ! GOES 11
   LISTPLAT(8)="goes",
   LISTSAT(8)=011,
   LISTBURP(9)=256, ! GOES 12
   LISTPLAT(9)="goes",
   LISTSAT(9)=012,
   LISTBURP(10)=784,! AQUA (EOS 2)
   LISTPLAT(10)="eos",
   LISTSAT(10)=002,
   LISTBURP(11)=208,! NOAA 17
   LISTPLAT(11)="noaa",
   LISTSAT(11)=017,
   LISTBURP(12)=209,! NOAA 18
   LISTPLAT(12)="noaa",
   LISTSAT(12)=018,
   LISTBURP(13)=003,! METOP-1 (METOP-B)
   LISTPLAT(13)="metop",
   LISTSAT(13)=001,
   LISTBURP(14)=004,! METOP-2 (METOP-A)
   LISTPLAT(14)="metop",
   LISTSAT(14)=002,
   LISTBURP(15)=005,! METOP-3 (METOP-C)
   LISTPLAT(15)="metop",
   LISTSAT(15)=003,
   LISTBURP(16)=223,! NOAA 19
   LISTPLAT(16)="noaa",
   LISTSAT(16)=019,
   LISTBURP(17)=171,! MTSAT-1R
   LISTPLAT(17)="mtsat-1r",
   LISTSAT(17)=001,
   LISTBURP(18)=056,! METEOSAT 9 (MSG 2)
   LISTPLAT(18)="msg",
   LISTSAT(18)=002,
   LISTBURP(19)=257,! GOES 13
   LISTPLAT(19)="goes",
   LISTSAT(19)=013,
   LISTBURP(20)=285,! DMSP17
   LISTPLAT(20)="dmsp",
   LISTSAT(20)=017,
   LISTBURP(21)=286,! DMSP18
   LISTPLAT(21)="dmsp",
   LISTSAT(21)=018,
   LISTBURP(22)=224,! NPP
   LISTPLAT(22)="jpss",
   LISTSAT(22)=000,
   LISTBURP(23)=259,! GOES 15
   LISTPLAT(23)="goes",
   LISTSAT(23)=015, 
   LISTBURP(24)=172,! MTSAT-2
   LISTPLAT(24)="mtsat",
   LISTSAT(24)=002,
   LISTBURP(25)=258,! GOES 14
   LISTPLAT(25)="goes",
   LISTSAT(25)=014,
   LISTBURP(26)=057,! METEOSAT 10 alias MSG 3
   LISTPLAT(26)="msg",
   LISTSAT(26)=003,
   LISTBURP(27)=070,! METEOSAT 11 alias MSG 4
   LISTPLAT(27)="msg",
   LISTSAT(27)=004,
   LISTBURP(28)=173,! HMWARI-8
   LISTPLAT(28)="hmwari",
   LISTSAT(28)=008,
   LISTBURP(29)=055,! METEOSAT 8
   LISTPLAT(29)="msg",
   LISTSAT(29)=001,
   LISTBURP(30)=174,! HMWARI-9
   LISTPLAT(30)="hmwari",
   LISTSAT(30)=009,
   LISTBURP(31)=270,! GOES 16
   LISTPLAT(31)="goes",
   LISTSAT(31)=016,
   LISTBURP(32)=225,! NOAA 20
   LISTPLAT(32)="noaa",
   LISTSAT(32)=020,
/
 &NAMINST
   LISTBURP(1)=050
   LISTINSTRUM(1)="atsr",
   LISTBURP(2)=203,
   LISTINSTRUM(2)="mhs",
   LISTBURP(3)=205,
   LISTINSTRUM(3)="mviri",
   LISTBURP(4)=207, 
   LISTINSTRUM(4)="seviri",
   LISTBURP(5)=221, 
   LISTINSTRUM(5)="iasi",
   LISTBURP(6)=295,
   LISTINSTRUM(6)="gmsim",
   LISTBURP(7)=296, 
   LISTINSTRUM(7)="gmsim",
   LISTBURP(8)=365, 
   LISTINSTRUM(8)="tmi",
   LISTBURP(9)=389, 
   LISTINSTRUM(9)="modis",
   LISTBURP(10)=420,
   LISTINSTRUM(10)="airs",
   LISTBURP(11)=570,
   LISTINSTRUM(11)="amsua",
   LISTBURP(12)=571,
   LISTINSTRUM(12)="amsua",
   LISTBURP(13)=572,
   LISTINSTRUM(13)="amsua",
   LISTBURP(14)=573,
   LISTINSTRUM(14)="amsua",
   LISTBURP(15)=574,
   LISTINSTRUM(15)="amsub",
   LISTBURP(16)=590,
   LISTINSTRUM(16)="avhrr",
   LISTBURP(17)=591,
   LISTINSTRUM(17)="avhrr",
   LISTBURP(18)=592,
   LISTINSTRUM(18)="avhrr",
   LISTBURP(19)=605,
   LISTINSTRUM(19)="hirs",
   LISTBURP(20)=606,
   LISTINSTRUM(20)="hirs",
   LISTBURP(21)=607,
   LISTINSTRUM(21)="hirs",
   LISTBURP(22)=615,
   LISTINSTRUM(22)="goesim",
   LISTBURP(23)=620,
   LISTINSTRUM(23)="cris",
   LISTBURP(24)=621,
   LISTINSTRUM(24)="atms",
   LISTBURP(25)=626,
   LISTINSTRUM(25)="goessd",
   LISTBURP(26)=623,
   LISTINSTRUM(26)="msu",
   LISTBURP(27)=627,
   LISTINSTRUM(27)="ssu",
   LISTBURP(28)=905,	
   LISTINSTRUM(28)="ssmi",
   LISTBURP(29)=908,
   LISTINSTRUM(29)="ssmis",
   LISTBURP(30)=2047,
   LISTINSTRUM(30)="airs",
   LISTBURP(31)=297,
   LISTINSTRUM(31)="ahi",
   LISTBURP(32)=617,
   LISTINSTRUM(32)="abi",
   LISTBURP(33)=2046,
   LISTINSTRUM(33)="crisfsr",
/ 
 &NAMCHANOFFSET
   LISTOFFSET(1)=27,
   LISTINSTRUM(1)="amsua",
   LISTOFFSET(2)=42,
   LISTINSTRUM(2)="amsub",
   LISTOFFSET(3)=42,
   LISTINSTRUM(3)="mhs",   
   LISTOFFSET(4)=3,
   LISTINSTRUM(4)="seviri",   
   LISTOFFSET(5)=18,
   LISTINSTRUM(5)="goesim",   
/
 &NAMTOVSINST
   inst_names(1)='amsua',
   inst_names(2)='amsub',
   inst_names(3)='mhs',
   inst_names(4)='ssmis',
   inst_names(5)='atms',
   inst_names(6)='airs',
   inst_names(7)='iasi',
   inst_names(8)='cris',
   inst_names(9)='radianceclear',
   inst_names(10)='crisfsr',
/
 &NAMHYPER
   name_inst(1)='airs',
   name_inst(2)='iasi',
   name_inst(3)='cris',
   name_inst(4)='crisfsr',
/
 &NAMGEO
   name_inst(1)='goesim',
   name_inst(2)='ahi',
   name_inst(3)='mviri',
   name_inst(4)='seviri',
   name_inst(5)='gmsim',
   name_inst(6)='abi',
/
 &NAMGEOBUFR
   name_inst(1)='cgoes',
   name_inst(2)='ahi',
   name_inst(3)='mviri',
   name_inst(4)='seviri',
   name_inst(5)='gmsim',
   name_inst(6)='abi',
/
 &NAMCODTYP
/
 &NAMGPSRO
/
 &NAMGPSGB
&NAMBIASSAT
    biasActive=.TRUE.,
    BG_STDDEV=2.d1, 2.d1, 2.d1, 2.d1, 2.d1, 2.d1
    biasmode="apply",
    removeBiasCorrection=.false.
    refreshBiasCorrection=.false.
    mimicsatbcor=.true.
    scanBiasCorLength=-1.d0
    centerPredictors=.false.,
    weightedEstimate=.false.,
    outstats=.false.,
    outcoeffcov=.false.,
    filterObs = .false.,
    cinst(1)="AMSUA"
    nbscan(1)=30
    cglobal(1)="DEF"
    cinst(2)="AMSUB"
    nbscan(2)=90
    cglobal(2)="DEF"
    cinst(3)="MHS"
    nbscan(3)=90
    cglobal(3)="DEF"
    cinst(4)="SSMIS"
    nbscan(4)=60
    cglobal(4)="NON"
    cinst(5)="AIRS"
    nbscan(5)=1
    cglobal(5)="NON"
    cinst(6)="IASI"
    nbscan(6)=1
    cglobal(6)="NON"
    cinst(7)="METS7"
    nbscan(7)=1
    cglobal(7)="OUI"
    cinst(8)="SEVIRI"
    nbscan(8)=1
    cglobal(8)="OUI"
    cinst(9)="MTSAT"
    nbscan(9)=1
    cglobal(9)="OUI"
    cinst(10)="CGOES"
    nbscan(10)=1
    cglobal(10)="OUI"
    cinst(11)="ATMS"
    nbscan(11)=96
    cglobal(11)="DEF"
    cinst(12)="CRIS"
    nbscan(12)=1
    cglobal(12)="NON"
    cinst(13)="CRISFSR"
    nbscan(13)=1
    cglobal(13)="NON"
    cinst(14)="AHI"
    nbscan(14)=1
    cglobal(14)="OUI"
/
/
 &NAMOER
  mwAllskyInflateByOmp = .false.,
  mwAllskyInflateByClwDiff = .false.,
  readOldSymmetricObsErrFile = .false.,
/
