 &NAMBGCK
  instName = 'ATMS'
  debug = .false.
  RESETQC = .false.
  clwQcThreshold = 0.6
  useUnbiasedObsForClw =.true.
  cloudyClwThresholdBcorr = 0.05,
/
 &namObsSelection
  doThinning = .true.
/
 &namObsDbClean
  useVacuum = .true.
/
 &NAMobsDB
   numElemIdList = 1
   elemIdList(1) = 12163
/
 &namObsDbMIDASBodyUpdate
   numberUpdateItems=4
   updateItemList(1)='OMP'
   updateItemList(2)='BCOR'
   updateItemList(3)='OER'
   updateItemList(4)='SEM'
/
 &namObsDbMIDASHeaderUpdate
   numberUpdateItems=12
   updateItemList(1)='ETOP'
   updateItemList(2)='VTOP'
   updateItemList(3)='ECF'
   updateItemList(4)='VCF'
   updateItemList(5)='HE'
   updateItemList(6)='NCO2'
   updateItemList(7)='ZTSR'
   updateItemList(8)='ZTM'
   updateItemList(9)='ZLQM'
   updateItemList(10)='ZTGM'
   updateItemList(11)='ZPS'
   updateItemList(12)='STYP'
/
 &NAMDIMO
   NMXOBS=400000,
   NDATAMX=7000000,
/
 &NAMTIME
  DSTEPOBS = 3.0D0
/
 &NAMFILT
  NLIST(1)=12062,
  NLIST(2)=12063,
  NLIST(3)=12163,
  RLIMLVHU   = 70.D0
/
 &NAMRMAT
/
 &NAMSTATE
   abortOnMpiImbalance = .false.
   addHeightSfcOffset = .false.
   RHUMIN  = 1.0D-07
   ANLVAR(1)   ='UU'
   ANLVAR(2)   ='VV'
   ANLVAR(3)   ='TT'
   ANLVAR(4)   ='HU'
   ANLVAR(5)   ='P0'
   ANLVAR(6)   ='TG'
/
 &NAMTOV
   CSATID(1)        = 'NPP',
   CINSTRUMENTID(1) = 'ATMS',
   CSATID(2)        = 'NOAA20',
   CINSTRUMENTID(2) = 'ATMS',
   LDBGTOV    = .FALSE.,
   CRTMODL    = 'RTTOV',
   regLimitExtrap=.false.
/
 &NAMCODTYP
/
 &NAMGPSRO
/
 &NAMGPSGB
&NAMBIASSAT
    biasActive=.TRUE.,
    BG_STDDEV=2.d1, 2.d1, 2.d1, 2.d1, 2.d1, 2.d1
    biasmode="apply",
    removeBiasCorrection=.false.
    refreshBiasCorrection=.false.
    mimicsatbcor=.true.
    scanBiasCorLength=-1.d0
    centerPredictors=.false.,
    weightedEstimate=.false.,
    outstats=.false.,
    outcoeffcov=.false.,
    filterObs = .false.,
    cinst(1)="AMSUA"
    nbscan(1)=30
    cglobal(1)="DEF"
    cinst(2)="AMSUB"
    nbscan(2)=90
    cglobal(2)="DEF"
    cinst(3)="MHS"
    nbscan(3)=90
    cglobal(3)="DEF"
    cinst(4)="SSMIS"
    nbscan(4)=60
    cglobal(4)="NON"
    cinst(5)="AIRS"
    nbscan(5)=1
    cglobal(5)="NON"
    cinst(6)="IASI"
    nbscan(6)=1
    cglobal(6)="NON"
    cinst(7)="METS7"
    nbscan(7)=1
    cglobal(7)="OUI"
    cinst(8)="SEVIRI"
    nbscan(8)=1
    cglobal(8)="OUI"
    cinst(9)="MTSAT"
    nbscan(9)=1
    cglobal(9)="OUI"
    cinst(10)="CGOES"
    nbscan(10)=1
    cglobal(10)="OUI"
    cinst(11)="ATMS"
    nbscan(11)=96
    cglobal(11)="DEF"
    cinst(12)="CRIS"
    nbscan(12)=1
    cglobal(12)="NON"
    cinst(13)="CRISFSR"
    nbscan(13)=1
    cglobal(13)="NON"
    cinst(14)="AHI"
    nbscan(14)=1
    cglobal(14)="OUI"
/
/
 &NAMOER
  mwAllskyTtInflateByOmp = .false.,
  mwAllskyTtInflateByClwDiff = .false.,
  readOldSymmetricObsErrFile = .false.,
/
