 &NAMOMF
   ADDSIGMAO = .FALSE.
   ADDHBHT   = .FALSE.
/
 &NAMDIMO
   NMXOBS=400000,
   NDATAMX=7000000,
/
 &NAMTIME
  DSTEPOBS = 0.25D0
/
 &NAMFILT
   NLIST(1)=15198,
   NLIST(2)=15199,
   NLIST(3)=15208,
   NLIST(4)=15008,
   NLIST(5)=15208,
   NLIST(6)=15230,
   NLIST(7)=12001,
   NLISTFLG(1)=2,
   NLISTFLG(2)=4,
   NLISTFLG(3)=5,
   NLISTFLG(4)=6,
   NLISTFLG(5)=11,
   NLISTFLG(6)=-5,
   NLISTFLG(7)=-8,
   RLIMLVHU=70.D0,
/
 &NAMRMAT
/
 &NAMSTATE
   abortOnMpiImbalance = .false.
   addHeightSfcOffset = .false.
   RHUMIN  = 1.0D-07
   ANLVAR(1) = 'TT'
   ANLVAR(2) = 'HU'
   ANLVAR(3) = 'P0'
   ANLVAR(4) = 'O3L'
/
 &NAMBGCHK
/
 &NAMCODTYP
   cnames(1)='CHEMREMOTE',
   icod(1)=195, 
   cnames(2)='CHEMINSITU',
   icod(2)=196, 
/
&NAMBURP_FILTER_CHM_SFC
  BNBITSOFF=0,
  NELEMS_SFC=3,
  BLISTELEMENTS_SFC=15198,15208,8090 
/
&NAMBURP_FILTER_CHM
  BNBITSOFF=0,
  NELEMS=6,
  BLISTELEMENTS=15198,15199,15008,15208,15230,8090 
/
 &NAMBURP_UPDATE
  BITEMLIST(1)='OMP',
  TYPE_RESUME='DERIALT'
/
 &NAMCHEM
  MODELNAME='GEM'   ! To identify O3L instead of TO3 from BUFR no.
/
