 &NAMTIME
  DSTEPOBS    = 24.0d0
  DSTEPOBSINC = 24.0d0
  DWINDOWSIZE = 48.0d0
  referenceTime="middle"
/
 &NAMSTATE
  ANLVAR(1) = 'TM'
/
 &NAMDIMO
   NMXOBS=1500000,
   NDATAMX=1500000
/
 &NAMFILT
  NELEMS = 1,
  NLIST(1)=22042,
  NFLAGS=6,
  NLISTFLG(1)=2
  NLISTFLG(2)=3
  NLISTFLG(3)=4
  NLISTFLG(4)=10
  NLISTFLG(5)=11
  NLISTFLG(6)=12
/
 &NAMSQLsfc
   numberElem=1
   listElem='22042'
   sqlNull=' and obsvalue is not null '  
/ 
&namReadSSTSat
   numberElem=1
   listElem='22042'
   sqlExtraDat=' and id_obs in (select id_obs from header where id_stn in ("METO-A","METO-B","NOAA18","NOAA19","NPP","AMSR2")) '
   sqlNull=' and obsvalue is not null '
   sqlExtraHeader=' id_stn in ("METO-A","METO-B","NOAA18","NOAA19","NPP","AMSR2") '
/ 
&namSSTbiasEstimate
   numberSensors = 5
   sensorList(1)='AMSR2'
   sensorList(2)='METO-B'
   sensorList(3)='METO-A'
   sensorList(4)='NOAA19'
   sensorList(5)='NPP'
/

 &namSQLUpdate
  numberUpdateItems=3
  itemUpdateList(1)='OMP'
  itemUpdateList(2)='OER'
  itemUpdateList(3)='FGE'
/
 &namSQLInsert
/
