 &NAMTIME
  DSTEPOBS    = 24.0d0
  DSTEPOBSINC = 24.0d0
  DWINDOWSIZE = 24.0d0
  referenceTime="start"
/
 &NAMSTATE
  ANLVAR(1) = 'TM'
/
 &NAMDIMO
   NMXOBS=1500000,
   NDATAMX=1500000
/
 &NAMFILT
  NELEMS = 1,
  NLIST(1)=22042,
  NFLAGS=6,
  NLISTFLG(1)=2
  NLISTFLG(2)=3
  NLISTFLG(3)=4
  NLISTFLG(4)=10
  NLISTFLG(5)=11
  NLISTFLG(6)=12
/
 &NAMBDIFF
  corr_len = 200*-1
  stab     = 200*0.2
  nsamp    = 200*5000
  SCALEFACTOR = 200*1.0
  stddevMode = 'GD2D'
/
 &NAMBHI
   SCALEFACTOR = 200*0.0D0
/
 &NAMBEN
   SCALEFACTOR = 200*0.0D0
/
 &NAMSQLsfc
   numberElem=1
   listElem="22042, 7025"
   sqlExtraDat=" order by id_obs "
   sqlNull=" and obsvalue is not null "  
/
 &namSQLUpdate
  numberUpdateItems=3
  itemUpdateList(1)='OMP'
  itemUpdateList(2)='OER'
  itemUpdateList(3)='FGE'
/
 &namSQLInsert
/
